Molecule
     RDKit          3D

 28 29  0  0  0  0  0  0  0  0999 V2000
    1.5746   -1.6888   -0.0373 C   0  0  0  0  0  0  0  0  0  0  0  0
   -1.1786   -1.8430    0.1550 C   0  0  0  0  0  0  0  0  0  0  0  0
    0.1441   -0.8856   -0.0248 C   0  0  0  0  0  0  0  0  0  0  0  0
    1.4977   -3.0422    0.0005 C   0  0  0  0  0  0  0  0  0  0  0  0
   -0.9293   -3.1825    0.1930 C   0  0  0  0  0  0  0  0  0  0  0  0
    0.3180   -3.7008    0.0571 N   0  0  0  0  0  0  0  0  0  0  0  0
   -2.6465   -1.2219    0.3975 C   0  0  0  0  0  0  0  0  0  0  0  0
    3.0075   -1.0122   -0.1097 C   0  0  0  0  0  0  0  0  0  0  0  0
    0.0232    0.7581   -0.0555 C   0  0  0  0  0  0  0  0  0  0  0  0
   -1.2331    5.9641   -0.0363 C   0  0  0  0  0  0  0  0  0  0  0  0
   -0.1985    5.0805   -0.0299 N   0  0  0  0  0  0  0  0  0  0  0  0
    3.1488    0.1930   -0.2775 O   0  0  0  0  0  0  0  0  0  0  0  0
   -2.6790   -0.1725    1.0449 O   0  0  0  0  0  0  0  0  0  0  0  0
   -0.9526    7.1681   -0.0037 O   0  0  0  0  0  0  0  0  0  0  0  0
   -1.1103    1.3794   -0.3911 C   0  0  0  0  0  0  0  0  0  0  0  0
    1.1446    1.6345    0.2882 C   0  0  0  0  0  0  0  0  0  0  0  0
   -0.1863    3.6222   -0.0658 C   0  0  0  0  0  0  0  0  0  0  0  0
   -4.0146   -1.6819    0.0126 O   0  0  0  0  0  0  0  0  0  0  0  0
    4.2077   -1.7313    0.0048 O   0  0  0  0  0  0  0  0  0  0  0  0
    2.6877   -3.9620   -0.0213 C   0  0  0  0  0  0  0  0  0  0  0  0
   -1.9345   -4.2365    0.4762 C   0  0  0  0  0  0  0  0  0  0  0  0
   -1.2264    2.8524   -0.3920 C   0  0  0  0  0  0  0  0  0  0  0  0
    1.0563    2.9626    0.2759 C   0  0  0  0  0  0  0  0  0  0  0  0
   -2.7029    5.5913   -0.0397 C   0  0  0  0  0  0  0  0  0  0  0  0
   -4.2878   -2.7623   -0.9057 C   0  0  0  0  0  0  0  0  0  0  0  0
    5.3359   -0.8574   -0.0910 C   0  0  0  0  0  0  0  0  0  0  0  0
    6.6303   -1.6856    0.0218 C   0  0  0  0  0  0  0  0  0  0  0  0
   -5.5818   -3.4844   -0.4481 C   0  0  0  0  0  0  0  0  0  0  0  0
  2  3  1  0
  3  1  1  0
  4  1  2  0
  5  6  1  0
  6  4  1  0
  7  2  1  0
  8  1  1  0
  9  3  1  0
 10 11  1  0
 11 17  1  0
 12  8  2  0
 13  7  2  0
 14 10  2  0
 15  9  2  0
 16  9  1  0
 17 23  1  0
 18  7  1  0
 19  8  1  0
 20  4  1  0
 21  5  1  0
 22 15  1  0
 23 16  2  0
 24 10  1  0
 25 18  1  0
 26 19  1  0
 27 26  1  0
 28 25  1  0
  5  2  2  0
 17 22  2  0
M  END
>  <Name>  (1) 
Molecule

>  <IDNUMBER>  (1) 
ASN 01368133

>  <Num_H_Acceptors_Lipinski>  (1) 
7

>  <Num_H_Donors_Lipinski>  (1) 
2

>  <Molecular_Weight>  (1) 
386.44154

>  <ALogP>  (1) 
1.69

>  <Num_RotatableBonds>  (1) 
8

>  <Molecular_PolarSurfaceArea>  (1) 
93.73

>  <Num_H_Acceptors>  (1) 
6

>  <Num_H_Donors>  (1) 
2

>  <ADMET_Solubility>  (1) 
-3.07

>  <ADMET_Solubility_Level>  (1) 
3

>  <ADMET_Unknown_AlogP98>  (1) 
0

>  <ADMET_BBB>  (1) 
-1.141

>  <ADMET_BBB_Level>  (1) 
3

>  <ADMET_EXT_CYP2D6>  (1) 
-5.287029903144

>  <ADMET_EXT_CYP2D6#Prediction>  (1) 
false

>  <ADMET_EXT_CYP2D6_Applicability>  (1) 
All properties and OPS components are within expected ranges.
Unknown FCFP_2 feature: 436975416: [*]NC(=C([*])[*])C

>  <ADMET_EXT_CYP2D6_Applicability#MD>  (1) 
14.7156750432881

>  <ADMET_EXT_CYP2D6_Applicability#MDpvalue>  (1) 
4.26252432638461e-06

>  <ADMET_EXT_Hepatotoxic>  (1) 
-11.4782433610334

>  <ADMET_EXT_Hepatotoxic#Prediction>  (1) 
false

>  <ADMET_EXT_Hepatotoxic_Applicability>  (1) 
All properties and OPS components are within expected ranges.

>  <ADMET_EXT_Hepatotoxic_Applicability#MD>  (1) 
9.85311671931401

>  <ADMET_EXT_Hepatotoxic_Applicability#MDpvalue>  (1) 
0.122160584996762

>  <ADMET_Absorption_Level>  (1) 
0

>  <ADMET_EXT_PPB>  (1) 
8.87748100199079

>  <ADMET_EXT_PPB#Prediction>  (1) 
true

>  <ADMET_EXT_PPB_Applicability>  (1) 
All properties and OPS components are within expected ranges.

>  <ADMET_EXT_PPB_Applicability#MD>  (1) 
10.8558648135592

>  <ADMET_EXT_PPB_Applicability#MDpvalue>  (1) 
0.562050779885669

>  <ADMET_AlogP98>  (1) 
1.69

>  <ADMET_PSA_2D>  (1) 
95.383

$$$$
Molecule
     RDKit          3D

 23 24  0  0  0  0  0  0  0  0999 V2000
   -4.1325   -1.5513    0.0000 C   0  0  0  0  0  0  0  0  0  0  0  0
   -4.2701   -2.9294   -0.0002 N   0  0  0  0  0  0  0  0  0  0  0  0
   -5.3056   -1.0784    0.0001 N   0  0  0  0  0  0  0  0  0  0  0  0
   -6.1712   -2.1359    0.0000 N   0  0  0  0  0  0  0  0  0  0  0  0
   -5.5601   -3.1958   -0.0001 N   0  0  0  0  0  0  0  0  0  0  0  0
   -2.6438   -0.5260    0.0000 S   0  0  0  0  0  0  0  0  0  0  0  0
    3.7364    3.3810    0.0003 C   0  0  0  0  0  0  0  0  0  0  0  0
    3.7029    1.8502    0.0000 C   0  0  0  0  0  0  0  0  0  0  0  0
    0.0700   -0.5162   -0.0001 C   0  0  0  0  0  0  0  0  0  0  0  0
    1.3116   -1.0383   -0.0003 N   0  0  0  0  0  0  0  0  0  0  0  0
    2.4822    1.0443    0.0000 C   0  0  0  0  0  0  0  0  0  0  0  0
    2.5081   -0.2812   -0.0002 C   0  0  0  0  0  0  0  0  0  0  0  0
    4.8608    3.8916    0.0003 O   0  0  0  0  0  0  0  0  0  0  0  0
   -0.1509    0.7009    0.0000 O   0  0  0  0  0  0  0  0  0  0  0  0
   -1.0822   -1.4483   -0.0001 C   0  0  0  0  0  0  0  0  0  0  0  0
   -3.2414   -3.9364   -0.0003 C   0  0  0  0  0  0  0  0  0  0  0  0
    2.6071    4.3240    0.0005 O   0  0  0  0  0  0  0  0  0  0  0  0
    4.8730    1.2082   -0.0002 C   0  0  0  0  0  0  0  0  0  0  0  0
    4.9219   -0.2611   -0.0004 C   0  0  0  0  0  0  0  0  0  0  0  0
    3.7947   -0.9699   -0.0005 C   0  0  0  0  0  0  0  0  0  0  0  0
    1.2482    3.8402    0.0005 C   0  0  0  0  0  0  0  0  0  0  0  0
   -3.8745   -5.3352   -0.0005 C   0  0  0  0  0  0  0  0  0  0  0  0
    0.2631    5.0201    0.0007 C   0  0  0  0  0  0  0  0  0  0  0  0
  2  1  1  0
  3  1  2  0
  4  3  1  0
  5  2  1  0
  6  1  1  0
  7  8  1  0
  8 11  2  0
  9 15  1  0
 10  9  1  0
 11 12  1  0
 12 10  1  0
 13  7  2  0
 14  9  2  0
 15  6  1  0
 16  2  1  0
 17  7  1  0
 18 19  2  0
 19 20  1  0
 20 12  2  0
 21 17  1  0
 22 16  1  0
 23 21  1  0
  4  5  2  0
 18  8  1  0
M  END
>  <Name>  (2) 
Molecule

>  <IDNUMBER>  (2) 
ASN 02993345

>  <Num_H_Acceptors_Lipinski>  (2) 
8

>  <Num_H_Donors_Lipinski>  (2) 
1

>  <Molecular_Weight>  (2) 
335.38148

>  <ALogP>  (2) 
1.413

>  <Num_RotatableBonds>  (2) 
8

>  <Molecular_PolarSurfaceArea>  (2) 
124.3

>  <Num_H_Acceptors>  (2) 
7

>  <Num_H_Donors>  (2) 
1

>  <ADMET_Solubility>  (2) 
-2.743

>  <ADMET_Solubility_Level>  (2) 
3

>  <ADMET_Unknown_AlogP98>  (2) 
0

>  <ADMET_BBB>  (2) 
-1.12

>  <ADMET_BBB_Level>  (2) 
3

>  <ADMET_EXT_CYP2D6>  (2) 
-10.9487793331225

>  <ADMET_EXT_CYP2D6#Prediction>  (2) 
false

>  <ADMET_EXT_CYP2D6_Applicability>  (2) 
All properties and OPS components are within expected ranges.
Unknown FCFP_2 feature: -1410079687: [*]N([*])[c]1:n:[*]:[*]:n:1[*]

>  <ADMET_EXT_CYP2D6_Applicability#MD>  (2) 
16.5405822948412

>  <ADMET_EXT_CYP2D6_Applicability#MDpvalue>  (2) 
3.5010468782577e-08

>  <ADMET_EXT_Hepatotoxic>  (2) 
-4.87668023704806

>  <ADMET_EXT_Hepatotoxic#Prediction>  (2) 
false

>  <ADMET_EXT_Hepatotoxic_Applicability>  (2) 
All properties and OPS components are within expected ranges.

>  <ADMET_EXT_Hepatotoxic_Applicability#MD>  (2) 
14.8193995092313

>  <ADMET_EXT_Hepatotoxic_Applicability#MDpvalue>  (2) 
8.80320441895593e-11

>  <ADMET_Absorption_Level>  (2) 
0

>  <ADMET_EXT_PPB>  (2) 
-4.14353823541437

>  <ADMET_EXT_PPB#Prediction>  (2) 
false

>  <ADMET_EXT_PPB_Applicability>  (2) 
All properties and OPS components are within expected ranges.

>  <ADMET_EXT_PPB_Applicability#MD>  (2) 
12.8766861100971

>  <ADMET_EXT_PPB_Applicability#MDpvalue>  (2) 
0.00847535365574687

>  <ADMET_AlogP98>  (2) 
1.762

>  <ADMET_PSA_2D>  (2) 
95.473

$$$$
Molecule
     RDKit          3D

 25 26  0  0  0  0  0  0  0  0999 V2000
   -5.8048    0.6376    0.0000 C   0  0  0  0  0  0  0  0  0  0  0  0
   -7.0990    0.1425    0.0003 N   0  0  0  0  0  0  0  0  0  0  0  0
   -5.8942    1.8984   -0.0002 N   0  0  0  0  0  0  0  0  0  0  0  0
   -7.2229    2.2075   -0.0001 N   0  0  0  0  0  0  0  0  0  0  0  0
   -7.9046    1.1907    0.0002 N   0  0  0  0  0  0  0  0  0  0  0  0
   -4.2666   -0.2504    0.0000 S   0  0  0  0  0  0  0  0  0  0  0  0
    4.7772   -1.7552    0.0003 C   0  0  0  0  0  0  0  0  0  0  0  0
   -1.6259    0.0955   -0.0004 C   0  0  0  0  0  0  0  0  0  0  0  0
    3.4030   -1.0490    0.0001 C   0  0  0  0  0  0  0  0  0  0  0  0
   -0.4496    0.7299   -0.0005 N   0  0  0  0  0  0  0  0  0  0  0  0
    4.7451   -2.9906    0.0005 O   0  0  0  0  0  0  0  0  0  0  0  0
   -1.7088   -1.1369    0.0000 O   0  0  0  0  0  0  0  0  0  0  0  0
   -2.8833    0.8997   -0.0005 C   0  0  0  0  0  0  0  0  0  0  0  0
    3.2201    0.2750   -0.0002 C   0  0  0  0  0  0  0  0  0  0  0  0
    2.2071   -1.9052    0.0001 C   0  0  0  0  0  0  0  0  0  0  0  0
    0.8185    0.0960   -0.0003 C   0  0  0  0  0  0  0  0  0  0  0  0
   -7.5906   -1.2466    0.0006 C   0  0  0  0  0  0  0  0  0  0  0  0
    6.1229   -1.1480    0.0003 O   0  0  0  0  0  0  0  0  0  0  0  0
    0.9871   -1.3671    0.0000 C   0  0  0  0  0  0  0  0  0  0  0  0
    1.8972    0.8668   -0.0004 C   0  0  0  0  0  0  0  0  0  0  0  0
    6.2440    0.2857    0.0000 C   0  0  0  0  0  0  0  0  0  0  0  0
   -6.5102   -2.3451   -0.0004 C   0  0  0  0  0  0  0  0  0  0  0  0
    7.6987    0.7542   -0.0002 C   0  0  0  0  0  0  0  0  0  0  0  0
    7.6820    2.2967   -0.0005 C   0  0  0  0  0  0  0  0  0  0  0  0
    9.1175    2.8424   -0.0007 C   0  0  0  0  0  0  0  0  0  0  0  0
  2  1  1  0
  3  1  2  0
  4  3  1  0
  5  2  1  0
  6  1  1  0
  7  9  1  0
  8 13  1  0
  9 14  2  0
 10  8  1  0
 11  7  2  0
 12  8  2  0
 13  6  1  0
 14 20  1  0
 15 19  2  0
 16 10  1  0
 17  2  1  0
 18  7  1  0
 19 16  1  0
 20 16  2  0
 21 18  1  0
 22 17  1  0
 23 21  1  0
 24 23  1  0
 25 24  1  0
  4  5  2  0
  9 15  1  0
M  END
>  <Name>  (3) 
Molecule

>  <IDNUMBER>  (3) 
ASN 03156068

>  <Num_H_Acceptors_Lipinski>  (3) 
8

>  <Num_H_Donors_Lipinski>  (3) 
1

>  <Molecular_Weight>  (3) 
363.43464

>  <ALogP>  (3) 
2.393

>  <Num_RotatableBonds>  (3) 
10

>  <Molecular_PolarSurfaceArea>  (3) 
124.3

>  <Num_H_Acceptors>  (3) 
7

>  <Num_H_Donors>  (3) 
1

>  <ADMET_Solubility>  (3) 
-3.341

>  <ADMET_Solubility_Level>  (3) 
3

>  <ADMET_Unknown_AlogP98>  (3) 
0

>  <ADMET_BBB>  (3) 
-0.817

>  <ADMET_BBB_Level>  (3) 
3

>  <ADMET_EXT_CYP2D6>  (3) 
-8.72765399888043

>  <ADMET_EXT_CYP2D6#Prediction>  (3) 
false

>  <ADMET_EXT_CYP2D6_Applicability>  (3) 
All properties and OPS components are within expected ranges.
Unknown FCFP_2 feature: -1410079687: [*]N([*])[c]1:n:[*]:[*]:n:1[*]

>  <ADMET_EXT_CYP2D6_Applicability#MD>  (3) 
16.6010727540106

>  <ADMET_EXT_CYP2D6_Applicability#MDpvalue>  (3) 
2.9797688949149e-08

>  <ADMET_EXT_Hepatotoxic>  (3) 
-7.00033679722659

>  <ADMET_EXT_Hepatotoxic#Prediction>  (3) 
false

>  <ADMET_EXT_Hepatotoxic_Applicability>  (3) 
All properties and OPS components are within expected ranges.

>  <ADMET_EXT_Hepatotoxic_Applicability#MD>  (3) 
14.347203861332

>  <ADMET_EXT_Hepatotoxic_Applicability#MDpvalue>  (3) 
1.40140442683248e-09

>  <ADMET_Absorption_Level>  (3) 
0

>  <ADMET_EXT_PPB>  (3) 
-8.01519554688448

>  <ADMET_EXT_PPB#Prediction>  (3) 
false

>  <ADMET_EXT_PPB_Applicability>  (3) 
All properties and OPS components are within expected ranges.

>  <ADMET_EXT_PPB_Applicability#MD>  (3) 
13.9425055621288

>  <ADMET_EXT_PPB_Applicability#MDpvalue>  (3) 
0.00013517697082843

>  <ADMET_AlogP98>  (3) 
2.742

>  <ADMET_PSA_2D>  (3) 
95.473

$$$$
Molecule
     RDKit          3D

 25 27  0  0  0  0  0  0  0  0999 V2000
    1.8929    0.3710   -0.0895 N   0  0  0  0  0  0  0  0  0  0  0  0
    2.8461    1.4045   -0.0626 C   0  0  0  0  0  0  0  0  0  0  0  0
    2.2287    2.5185   -0.1216 N   0  0  0  0  0  0  0  0  0  0  0  0
    0.6579    1.0394   -0.1787 C   0  0  0  0  0  0  0  0  0  0  0  0
    0.8729    2.2949   -0.1911 N   0  0  0  0  0  0  0  0  0  0  0  0
    4.3483    1.3078    0.0075 C   0  0  0  0  0  0  0  0  0  0  0  0
    2.1760   -1.0983   -0.0617 C   0  0  0  0  0  0  0  0  0  0  0  0
   -0.9548    0.2954   -0.2658 S   0  0  0  0  0  0  0  0  0  0  0  0
   -3.5310    0.4829   -0.0952 C   0  0  0  0  0  0  0  0  0  0  0  0
    5.1596    2.4013   -0.0060 O   0  0  0  0  0  0  0  0  0  0  0  0
   -4.7792    0.9545    0.0345 N   0  0  0  0  0  0  0  0  0  0  0  0
    5.0861    0.2051    0.0826 C   0  0  0  0  0  0  0  0  0  0  0  0
    6.4623    1.9725    0.0622 C   0  0  0  0  0  0  0  0  0  0  0  0
    6.4693    0.6410    0.1194 C   0  0  0  0  0  0  0  0  0  0  0  0
   -5.9541    0.0809    0.1006 C   0  0  0  0  0  0  0  0  0  0  0  0
   -3.3081   -0.7327   -0.1660 O   0  0  0  0  0  0  0  0  0  0  0  0
    0.0262   -1.9939    0.8169 O   0  0  0  0  0  0  0  0  0  0  0  0
   -2.3523    1.4122   -0.1372 C   0  0  0  0  0  0  0  0  0  0  0  0
    0.9772   -2.0588   -0.2526 C   0  0  2  0  0  0  0  0  0  0  0  0
   -0.8397   -3.1554    0.6141 C   0  0  0  0  0  0  0  0  0  0  0  0
   -6.1009   -0.7359   -1.2060 C   0  0  0  0  0  0  0  0  0  0  0  0
   -5.8420   -0.8975    1.2969 C   0  0  0  0  0  0  0  0  0  0  0  0
   -7.2114    0.9449    0.2889 C   0  0  0  0  0  0  0  0  0  0  0  0
    1.3620   -3.5163   -0.2341 C   0  0  0  0  0  0  0  0  0  0  0  0
   -0.0462   -4.0759   -0.3579 C   0  0  0  0  0  0  0  0  0  0  0  0
  2  1  1  0
  3  2  2  0
  4  1  1  0
  5  4  2  0
  6  2  1  0
  7  1  1  0
  8  4  1  0
  9 18  1  0
 10  6  1  0
 11  9  1  0
 12  6  2  0
 13 10  1  0
 14 12  1  0
 15 11  1  0
 16  9  2  0
 17 19  1  0
 18  8  1  0
 19  7  1  1
 20 17  1  0
 21 15  1  0
 22 15  1  0
 23 15  1  0
 24 19  1  0
 25 24  1  0
  5  3  1  0
 20 25  1  0
 13 14  2  0
M  END
>  <Name>  (4) 
Molecule

>  <IDNUMBER>  (4) 
ASN 04037302

>  <Num_H_Acceptors_Lipinski>  (4) 
7

>  <Num_H_Donors_Lipinski>  (4) 
1

>  <Molecular_Weight>  (4) 
364.46246

>  <ALogP>  (4) 
2.153

>  <Num_RotatableBonds>  (4) 
7

>  <Molecular_PolarSurfaceArea>  (4) 
107.48

>  <Num_H_Acceptors>  (4) 
5

>  <Num_H_Donors>  (4) 
1

>  <ADMET_Solubility>  (4) 
-3.455

>  <ADMET_Solubility_Level>  (4) 
3

>  <ADMET_Unknown_AlogP98>  (4) 
0

>  <ADMET_BBB>  (4) 
-0.746

>  <ADMET_BBB_Level>  (4) 
3

>  <ADMET_EXT_CYP2D6>  (4) 
-8.24204157134477

>  <ADMET_EXT_CYP2D6#Prediction>  (4) 
false

>  <ADMET_EXT_CYP2D6_Applicability>  (4) 
All properties and OPS components are within expected ranges.
Unknown FCFP_2 feature: 690481386: [*]:n:[c](:n:[*])[c](:[*]):[*]
Unknown FCFP_2 feature: -1410079687: [*]N([*])[c]1:n:[*]:[*]:n:1[*]

>  <ADMET_EXT_CYP2D6_Applicability#MD>  (4) 
12.8152991142447

>  <ADMET_EXT_CYP2D6_Applicability#MDpvalue>  (4) 
0.000470237679129679

>  <ADMET_EXT_Hepatotoxic>  (4) 
-4.40038390114924

>  <ADMET_EXT_Hepatotoxic#Prediction>  (4) 
false

>  <ADMET_EXT_Hepatotoxic_Applicability>  (4) 
All properties and OPS components are within expected ranges.

>  <ADMET_EXT_Hepatotoxic_Applicability#MD>  (4) 
15.124357523099

>  <ADMET_EXT_Hepatotoxic_Applicability#MDpvalue>  (4) 
1.38526863474939e-11

>  <ADMET_Absorption_Level>  (4) 
0

>  <ADMET_EXT_PPB>  (4) 
-1.82900580496806

>  <ADMET_EXT_PPB#Prediction>  (4) 
true

>  <ADMET_EXT_PPB_Applicability>  (4) 
All properties and OPS components are within expected ranges.

>  <ADMET_EXT_PPB_Applicability#MD>  (4) 
13.9812962432013

>  <ADMET_EXT_PPB_Applicability#MDpvalue>  (4) 
0.000113552645419672

>  <ADMET_AlogP98>  (4) 
2.153

>  <ADMET_PSA_2D>  (4) 
79.465

$$$$
Molecule
     RDKit          3D

 31 33  0  0  0  0  0  0  0  0999 V2000
   -4.6166    1.0607    0.7819 S   0  0  0  0  0  0  0  0  0  0  0  0
    0.6398    0.5738    0.1144 N   0  0  0  0  0  0  0  0  0  0  0  0
   -0.6172    1.3583    0.0528 C   0  0  0  0  0  0  0  0  0  0  0  0
   -3.1277    1.5927   -0.0070 N   0  0  0  0  0  0  0  0  0  0  0  0
   -1.9941    0.7715    0.4414 C   0  0  0  0  0  0  0  0  0  0  0  0
    3.2285    0.8354   -0.2998 C   0  0  0  0  0  0  0  0  0  0  0  0
   -5.2024    2.0552   -0.2022 O   0  0  0  0  0  0  0  0  0  0  0  0
   -4.0278   -0.3147    0.5259 O   0  0  0  0  0  0  0  0  0  0  0  0
   -6.1008    0.1712    0.3017 C   0  0  0  0  0  0  0  0  0  0  0  0
    1.9009    1.4152    0.2255 C   0  0  0  0  0  0  0  0  0  0  0  0
    0.6624   -0.9407    0.1355 C   0  0  0  0  0  0  0  0  0  0  0  0
    4.4006    1.2970    0.1556 N   0  0  0  0  0  0  0  0  0  0  0  0
   -0.5321    2.5872   -0.0129 O   0  0  0  0  0  0  0  0  0  0  0  0
    3.2329   -0.1011   -1.1055 O   0  0  0  0  0  0  0  0  0  0  0  0
    8.0798    0.6179   -0.1422 O   0  0  0  0  0  0  0  0  0  0  0  0
    1.8068   -1.7059    0.6838 C   0  0  0  0  0  0  0  0  0  0  0  0
   -0.3583   -1.6584   -0.3636 C   0  0  0  0  0  0  0  0  0  0  0  0
    0.6783   -3.7746    0.1313 C   0  0  0  0  0  0  0  0  0  0  0  0
    5.6164    0.6406   -0.2816 C   0  0  0  0  0  0  0  0  0  0  0  0
   -0.3573   -3.1117   -0.3628 C   0  0  0  0  0  0  0  0  0  0  0  0
    1.8142   -3.0378    0.6763 C   0  0  0  0  0  0  0  0  0  0  0  0
    6.8994    1.3274    0.2514 C   0  0  2  0  0  0  0  0  0  0  0  0
    0.6751   -5.5011    0.1296 Cl  0  0  0  0  0  0  0  0  0  0  0  0
    9.1825    1.5419    0.1145 C   0  0  0  0  0  0  0  0  0  0  0  0
   -6.1082   -1.2986    0.2235 C   0  0  0  0  0  0  0  0  0  0  0  0
   -7.2231    0.8472    0.0505 C   0  0  0  0  0  0  0  0  0  0  0  0
    7.1374    2.6925   -0.3578 C   0  0  0  0  0  0  0  0  0  0  0  0
    8.5091    2.9413    0.2540 C   0  0  0  0  0  0  0  0  0  0  0  0
   -7.2291   -1.9458   -0.1004 C   0  0  0  0  0  0  0  0  0  0  0  0
   -8.4541    0.1337   -0.3115 C   0  0  0  0  0  0  0  0  0  0  0  0
   -8.4576   -1.1962   -0.3812 C   0  0  0  0  0  0  0  0  0  0  0  0
  2  3  1  0
  3  5  1  0
  4  1  1  0
  5  4  1  0
  6 10  1  0
  7  1  2  0
  8  1  2  0
  9  1  1  0
 10  2  1  0
 11  2  1  0
 12  6  1  0
 13  3  2  0
 14  6  2  0
 15 22  1  0
 16 11  2  0
 17 11  1  0
 18 21  2  0
 19 12  1  0
 20 17  2  0
 21 16  1  0
 22 19  1  6
 23 18  1  0
 24 15  1  0
 25  9  2  0
 26  9  1  0
 27 22  1  0
 28 27  1  0
 29 25  1  0
 30 26  2  0
 31 30  1  0
 31 29  2  0
 18 20  1  0
 24 28  1  0
M  END
>  <Name>  (5) 
Molecule

>  <IDNUMBER>  (5) 
ASN 05451624

>  <Num_H_Acceptors_Lipinski>  (5) 
8

>  <Num_H_Donors_Lipinski>  (5) 
2

>  <Molecular_Weight>  (5) 
465.95036

>  <ALogP>  (5) 
1.666

>  <Num_RotatableBonds>  (5) 
9

>  <Molecular_PolarSurfaceArea>  (5) 
113.18

>  <Num_H_Acceptors>  (5) 
5

>  <Num_H_Donors>  (5) 
2

>  <ADMET_Solubility>  (5) 
-3.118

>  <ADMET_Solubility_Level>  (5) 
3

>  <ADMET_Unknown_AlogP98>  (5) 
0

>  <ADMET_BBB>  (5) 
-1.334

>  <ADMET_BBB_Level>  (5) 
3

>  <ADMET_EXT_CYP2D6>  (5) 
-13.4085029372368

>  <ADMET_EXT_CYP2D6#Prediction>  (5) 
false

>  <ADMET_EXT_CYP2D6_Applicability>  (5) 
All properties and OPS components are within expected ranges.

>  <ADMET_EXT_CYP2D6_Applicability#MD>  (5) 
12.2121135476734

>  <ADMET_EXT_CYP2D6_Applicability#MDpvalue>  (5) 
0.00185492427924957

>  <ADMET_EXT_Hepatotoxic>  (5) 
-7.21598658682465

>  <ADMET_EXT_Hepatotoxic#Prediction>  (5) 
false

>  <ADMET_EXT_Hepatotoxic_Applicability>  (5) 
OPS PC5 out of range. Value: 7.2442. Training min, max, SD, explained variance: -4.7382, 7.1496, 1.959, 0.0479.

>  <ADMET_EXT_Hepatotoxic_Applicability#MD>  (5) 
10.4441943337805

>  <ADMET_EXT_Hepatotoxic_Applicability#MDpvalue>  (5) 
0.0311373576944547

>  <ADMET_Absorption_Level>  (5) 
0

>  <ADMET_EXT_PPB>  (5) 
5.25933162003285

>  <ADMET_EXT_PPB#Prediction>  (5) 
true

>  <ADMET_EXT_PPB_Applicability>  (5) 
All properties and OPS components are within expected ranges.

>  <ADMET_EXT_PPB_Applicability#MD>  (5) 
12.7306955361737

>  <ADMET_EXT_PPB_Applicability#MDpvalue>  (5) 
0.0134995605558608

>  <ADMET_AlogP98>  (5) 
1.666

>  <ADMET_PSA_2D>  (5) 
107.106

$$$$
Molecule
     RDKit          3D

 31 33  0  0  0  0  0  0  0  0999 V2000
   -3.3489    0.8208   -0.2812 S   0  0  0  0  0  0  0  0  0  0  0  0
    1.5224   -0.0701    0.0970 N   0  0  0  0  0  0  0  0  0  0  0  0
   -2.2012    1.0442    1.0590 N   0  0  0  0  0  0  0  0  0  0  0  0
    0.2351    0.6812    0.3332 C   0  0  0  0  0  0  0  0  0  0  0  0
   -1.0505    0.0967    1.0391 C   0  0  0  0  0  0  0  0  0  0  0  0
    4.1737    0.2567    0.0666 C   0  0  0  0  0  0  0  0  0  0  0  0
   -4.6640   -0.3869    0.0155 C   0  0  0  0  0  0  0  0  0  0  0  0
   -2.5594    0.3930   -1.5154 O   0  0  0  0  0  0  0  0  0  0  0  0
   -4.0210    2.1436   -0.5364 O   0  0  0  0  0  0  0  0  0  0  0  0
    2.7173    0.7774   -0.3103 C   0  0  0  0  0  0  0  0  0  0  0  0
    5.2939    1.0244    0.0257 N   0  0  0  0  0  0  0  0  0  0  0  0
    1.7114   -1.5561    0.2880 C   0  0  0  0  0  0  0  0  0  0  0  0
    0.2518    1.8986    0.1135 O   0  0  0  0  0  0  0  0  0  0  0  0
    4.3586   -0.9083    0.4326 O   0  0  0  0  0  0  0  0  0  0  0  0
    0.8102   -3.8744    0.3346 O   0  0  0  0  0  0  0  0  0  0  0  0
   -5.9212    0.0755    0.1679 C   0  0  0  0  0  0  0  0  0  0  0  0
   -4.4393   -1.8391    0.0119 C   0  0  0  0  0  0  0  0  0  0  0  0
    0.4989   -2.5085    0.1027 C   0  0  2  0  0  0  0  0  0  0  0  0
   -7.0443   -0.8539    0.3369 C   0  0  0  0  0  0  0  0  0  0  0  0
   -5.4641   -2.6832    0.1551 C   0  0  0  0  0  0  0  0  0  0  0  0
   -6.8365   -2.1651    0.3244 C   0  0  0  0  0  0  0  0  0  0  0  0
    5.4325    2.4389   -0.3398 C   0  0  0  0  0  0  0  0  0  0  0  0
   -0.3861   -4.5891   -0.1043 C   0  0  0  0  0  0  0  0  0  0  0  0
   -7.9969   -3.1152    0.4773 C   0  0  0  0  0  0  0  0  0  0  0  0
   -0.1049   -2.5339   -1.2848 C   0  0  0  0  0  0  0  0  0  0  0  0
    4.6415    3.3811    0.6107 C   0  0  0  0  0  0  0  0  0  0  0  0
    6.9435    2.7964   -0.2124 C   0  0  0  0  0  0  0  0  0  0  0  0
   -1.1766   -3.5616   -0.9705 C   0  0  0  0  0  0  0  0  0  0  0  0
    4.8689    4.8515    0.1971 C   0  0  0  0  0  0  0  0  0  0  0  0
    7.1879    4.2746   -0.5913 C   0  0  0  0  0  0  0  0  0  0  0  0
    6.3665    5.1939    0.3338 C   0  0  0  0  0  0  0  0  0  0  0  0
  2  4  1  0
  3  1  1  0
  4  5  1  0
  5  3  1  0
  6 10  1  0
  7  1  1  0
  8  1  2  0
  9  1  2  0
 10  2  1  0
 11  6  1  0
 12  2  1  0
 13  4  2  0
 14  6  2  0
 15 18  1  0
 16  7  2  0
 17  7  1  0
 18 12  1  6
 19 16  1  0
 20 17  2  0
 21 19  2  0
 22 11  1  0
 23 15  1  0
 24 21  1  0
 25 18  1  0
 26 22  1  0
 27 22  1  0
 28 25  1  0
 29 26  1  0
 30 27  1  0
 31 30  1  0
 21 20  1  0
 23 28  1  0
 31 29  1  0
M  END
>  <Name>  (6) 
Molecule

>  <IDNUMBER>  (6) 
ASN 05452280

>  <Num_H_Acceptors_Lipinski>  (6) 
8

>  <Num_H_Donors_Lipinski>  (6) 
2

>  <Molecular_Weight>  (6) 
451.57952

>  <ALogP>  (6) 
1.769

>  <Num_RotatableBonds>  (6) 
9

>  <Molecular_PolarSurfaceArea>  (6) 
113.18

>  <Num_H_Acceptors>  (6) 
5

>  <Num_H_Donors>  (6) 
2

>  <ADMET_Solubility>  (6) 
-3.023

>  <ADMET_Solubility_Level>  (6) 
3

>  <ADMET_Unknown_AlogP98>  (6) 
0

>  <ADMET_BBB>  (6) 
-1.302

>  <ADMET_BBB_Level>  (6) 
3

>  <ADMET_EXT_CYP2D6>  (6) 
-11.6504163246864

>  <ADMET_EXT_CYP2D6#Prediction>  (6) 
false

>  <ADMET_EXT_CYP2D6_Applicability>  (6) 
All properties and OPS components are within expected ranges.

>  <ADMET_EXT_CYP2D6_Applicability#MD>  (6) 
13.8548278559667

>  <ADMET_EXT_CYP2D6_Applicability#MDpvalue>  (6) 
3.79608872634519e-05

>  <ADMET_EXT_Hepatotoxic>  (6) 
-7.64835454738025

>  <ADMET_EXT_Hepatotoxic#Prediction>  (6) 
false

>  <ADMET_EXT_Hepatotoxic_Applicability>  (6) 
All properties and OPS components are within expected ranges.

>  <ADMET_EXT_Hepatotoxic_Applicability#MD>  (6) 
11.0284430684392

>  <ADMET_EXT_Hepatotoxic_Applicability#MDpvalue>  (6) 
0.00565951217294828

>  <ADMET_Absorption_Level>  (6) 
0

>  <ADMET_EXT_PPB>  (6) 
5.97430499582692

>  <ADMET_EXT_PPB#Prediction>  (6) 
true

>  <ADMET_EXT_PPB_Applicability>  (6) 
All properties and OPS components are within expected ranges.

>  <ADMET_EXT_PPB_Applicability#MD>  (6) 
12.8742212670549

>  <ADMET_EXT_PPB_Applicability#MDpvalue>  (6) 
0.00854400305944887

>  <ADMET_AlogP98>  (6) 
1.769

>  <ADMET_PSA_2D>  (6) 
107.106

$$$$
Molecule
     RDKit          3D

 31 32  0  0  0  0  0  0  0  0999 V2000
   -3.6374    1.5842   -0.3000 S   0  0  0  0  0  0  0  0  0  0  0  0
    1.6894    0.5689   -0.0629 N   0  0  0  0  0  0  0  0  0  0  0  0
    4.3924    0.4631    0.1664 C   0  0  0  0  0  0  0  0  0  0  0  0
    0.3660    1.3488   -0.0612 C   0  0  0  0  0  0  0  0  0  0  0  0
   -2.0353    1.4615    0.4104 N   0  0  0  0  0  0  0  0  0  0  0  0
    3.0744    1.2768    0.2734 C   0  0  1  0  0  0  0  0  0  0  0  0
   -1.0358    0.8255   -0.4800 C   0  0  0  0  0  0  0  0  0  0  0  0
    5.5283    1.1461   -0.0709 N   0  0  0  0  0  0  0  0  0  0  0  0
   -4.8375    0.2639   -0.0514 C   0  0  0  0  0  0  0  0  0  0  0  0
   -3.4542    1.7608   -1.7931 O   0  0  0  0  0  0  0  0  0  0  0  0
   -4.2795    2.8422    0.2477 O   0  0  0  0  0  0  0  0  0  0  0  0
    1.7756   -0.9177   -0.3917 C   0  0  0  0  0  0  0  0  0  0  0  0
    4.4318   -0.7654    0.3597 O   0  0  0  0  0  0  0  0  0  0  0  0
    0.3724    2.5383    0.2471 O   0  0  0  0  0  0  0  0  0  0  0  0
    6.8693    0.5548   -0.1558 C   0  0  0  0  0  0  0  0  0  0  0  0
    0.7862   -3.2211   -0.5142 O   0  0  0  0  0  0  0  0  0  0  0  0
   -6.1140    0.6398    0.0461 C   0  0  0  0  0  0  0  0  0  0  0  0
   -4.5034   -1.1727   -0.0284 C   0  0  0  0  0  0  0  0  0  0  0  0
    0.5512   -1.8690   -0.1423 C   0  0  1  0  0  0  0  0  0  0  0  0
   -7.1856   -0.3362    0.1787 C   0  0  0  0  0  0  0  0  0  0  0  0
   -5.4899   -2.0743    0.0845 C   0  0  0  0  0  0  0  0  0  0  0  0
   -6.8999   -1.6325    0.1895 C   0  0  0  0  0  0  0  0  0  0  0  0
    3.4203    2.7565   -0.2036 C   0  0  0  0  0  0  0  0  0  0  0  0
   -0.3837   -3.9420   -0.0066 C   0  0  0  0  0  0  0  0  0  0  0  0
    6.9248   -0.5405   -1.2449 C   0  0  0  0  0  0  0  0  0  0  0  0
    7.8842    1.6594   -0.5130 C   0  0  0  0  0  0  0  0  0  0  0  0
    7.2704   -0.0615    1.2033 C   0  0  0  0  0  0  0  0  0  0  0  0
   -8.0171   -2.6359    0.3013 C   0  0  0  0  0  0  0  0  0  0  0  0
    0.0846   -2.0010    1.2978 C   0  0  0  0  0  0  0  0  0  0  0  0
    2.7116    3.9077    0.5434 C   0  0  0  0  0  0  0  0  0  0  0  0
   -1.0533   -2.9671    1.0081 C   0  0  0  0  0  0  0  0  0  0  0  0
  2  4  1  0
  3  6  1  0
  4  7  1  0
  5  1  1  0
  6  2  1  0
  7  5  1  0
  8  3  1  0
  9  1  1  0
 10  1  2  0
 11  1  2  0
 12  2  1  0
 13  3  2  0
 14  4  2  0
 15  8  1  0
 16 19  1  0
 17  9  2  0
 18  9  1  0
 19 12  1  1
 20 17  1  0
 21 18  2  0
 22 21  1  0
  6 23  1  6
 24 16  1  0
 25 15  1  0
 26 15  1  0
 27 15  1  0
 28 22  1  0
 29 19  1  0
 30 23  1  0
 31 29  1  0
 22 20  2  0
 24 31  1  0
M  END
>  <Name>  (7) 
Molecule

>  <IDNUMBER>  (7) 
ASN 05452285

>  <Num_H_Acceptors_Lipinski>  (7) 
8

>  <Num_H_Donors_Lipinski>  (7) 
2

>  <Molecular_Weight>  (7) 
453.5954

>  <ALogP>  (7) 
1.85

>  <Num_RotatableBonds>  (7) 
10

>  <Molecular_PolarSurfaceArea>  (7) 
113.18

>  <Num_H_Acceptors>  (7) 
5

>  <Num_H_Donors>  (7) 
2

>  <ADMET_Solubility>  (7) 
-3.088

>  <ADMET_Solubility_Level>  (7) 
3

>  <ADMET_Unknown_AlogP98>  (7) 
0

>  <ADMET_BBB>  (7) 
-1.277

>  <ADMET_BBB_Level>  (7) 
3

>  <ADMET_EXT_CYP2D6>  (7) 
-18.5597470875228

>  <ADMET_EXT_CYP2D6#Prediction>  (7) 
false

>  <ADMET_EXT_CYP2D6_Applicability>  (7) 
All properties and OPS components are within expected ranges.

>  <ADMET_EXT_CYP2D6_Applicability#MD>  (7) 
14.3807208358507

>  <ADMET_EXT_CYP2D6_Applicability#MDpvalue>  (7) 
1.00672470514709e-05

>  <ADMET_EXT_Hepatotoxic>  (7) 
-6.17118374068611

>  <ADMET_EXT_Hepatotoxic#Prediction>  (7) 
false

>  <ADMET_EXT_Hepatotoxic_Applicability>  (7) 
All properties and OPS components are within expected ranges.

>  <ADMET_EXT_Hepatotoxic_Applicability#MD>  (7) 
10.9295695501024

>  <ADMET_EXT_Hepatotoxic_Applicability#MDpvalue>  (7) 
0.00773522526824193

>  <ADMET_Absorption_Level>  (7) 
0

>  <ADMET_EXT_PPB>  (7) 
2.50863371006229

>  <ADMET_EXT_PPB#Prediction>  (7) 
true

>  <ADMET_EXT_PPB_Applicability>  (7) 
All properties and OPS components are within expected ranges.

>  <ADMET_EXT_PPB_Applicability#MD>  (7) 
14.6153888138196

>  <ADMET_EXT_PPB_Applicability#MDpvalue>  (7) 
5.25723644842266e-06

>  <ADMET_AlogP98>  (7) 
1.85

>  <ADMET_PSA_2D>  (7) 
107.106

$$$$
Molecule
     RDKit          3D

 32 34  0  0  0  0  0  0  0  0999 V2000
   -4.3363    1.2975    0.3182 S   0  0  0  0  0  0  0  0  0  0  0  0
    1.0131    0.5432   -0.0791 N   0  0  0  0  0  0  0  0  0  0  0  0
   -0.2489    1.3413    0.0073 C   0  0  0  0  0  0  0  0  0  0  0  0
   -2.6772    1.7271   -0.1344 N   0  0  0  0  0  0  0  0  0  0  0  0
   -1.6886    0.7332    0.0811 C   0  0  0  0  0  0  0  0  0  0  0  0
    1.0482   -0.9840   -0.1391 C   0  0  0  0  0  0  0  0  0  0  0  0
   -5.7348    0.1810    0.2180 C   0  0  0  0  0  0  0  0  0  0  0  0
    3.6268    0.8500    0.3115 C   0  0  0  0  0  0  0  0  0  0  0  0
   -0.0379   -1.7277    0.1506 C   0  0  0  0  0  0  0  0  0  0  0  0
   -4.0116    0.3499   -0.8179 O   0  0  0  0  0  0  0  0  0  0  0  0
   -5.0497    2.5761   -0.0470 O   0  0  0  0  0  0  0  0  0  0  0  0
    2.2792    1.3985   -0.2219 C   0  0  0  0  0  0  0  0  0  0  0  0
    4.7915    1.3159   -0.1622 N   0  0  0  0  0  0  0  0  0  0  0  0
   -0.1507    2.5713   -0.0036 O   0  0  0  0  0  0  0  0  0  0  0  0
    3.6521   -0.0728    1.1328 O   0  0  0  0  0  0  0  0  0  0  0  0
    8.4815    0.6475    0.1169 O   0  0  0  0  0  0  0  0  0  0  0  0
   -5.6745   -1.2902    0.1543 C   0  0  0  0  0  0  0  0  0  0  0  0
   -6.9169    0.7914    0.1630 C   0  0  0  0  0  0  0  0  0  0  0  0
   -0.0488   -3.1655    0.0728 C   0  0  0  0  0  0  0  0  0  0  0  0
   -8.1284   -1.2699    0.0205 C   0  0  0  0  0  0  0  0  0  0  0  0
    6.0178    0.6701    0.2712 C   0  0  0  0  0  0  0  0  0  0  0  0
   -6.8248   -1.9792    0.0659 C   0  0  0  0  0  0  0  0  0  0  0  0
   -8.1577    0.0550    0.0619 C   0  0  0  0  0  0  0  0  0  0  0  0
    7.2995    1.3645   -0.2599 C   0  0  1  0  0  0  0  0  0  0  0  0
   -1.1824   -3.8290    0.3612 F   0  0  0  0  0  0  0  0  0  0  0  0
   -9.2843   -1.9516   -0.0580 F   0  0  0  0  0  0  0  0  0  0  0  0
    2.2441   -1.7358   -0.5502 C   0  0  0  0  0  0  0  0  0  0  0  0
    2.2466   -3.0644   -0.6148 C   0  0  0  0  0  0  0  0  0  0  0  0
    9.5848    1.5736   -0.1289 C   0  0  0  0  0  0  0  0  0  0  0  0
    1.0393   -3.8184   -0.2921 C   0  0  0  0  0  0  0  0  0  0  0  0
    7.5428    2.7194    0.3706 C   0  0  0  0  0  0  0  0  0  0  0  0
    8.9131    2.9761   -0.2419 C   0  0  0  0  0  0  0  0  0  0  0  0
  2  3  1  0
  3  5  1  0
  4  1  1  0
  5  4  1  0
  6  2  1  0
  7  1  1  0
  8 12  1  0
  9  6  2  0
 10  1  2  0
 11  1  2  0
 12  2  1  0
 13  8  1  0
 14  3  2  0
 15  8  2  0
 16 24  1  0
 17  7  2  0
 18  7  1  0
 19  9  1  0
 20 22  2  0
 21 13  1  0
 22 17  1  0
 23 18  2  0
 24 21  1  1
 25 19  1  0
 26 20  1  0
 27  6  1  0
 28 27  2  0
 29 16  1  0
 30 28  1  0
 31 24  1  0
 32 31  1  0
 20 23  1  0
 30 19  2  0
 29 32  1  0
M  END
>  <Name>  (8) 
Molecule

>  <IDNUMBER>  (8) 
ASN 05456795

>  <Num_H_Acceptors_Lipinski>  (8) 
8

>  <Num_H_Donors_Lipinski>  (8) 
2

>  <Molecular_Weight>  (8) 
467.48623

>  <ALogP>  (8) 
1.413

>  <Num_RotatableBonds>  (8) 
9

>  <Molecular_PolarSurfaceArea>  (8) 
113.18

>  <Num_H_Acceptors>  (8) 
5

>  <Num_H_Donors>  (8) 
2

>  <ADMET_Solubility>  (8) 
-3.071

>  <ADMET_Solubility_Level>  (8) 
3

>  <ADMET_Unknown_AlogP98>  (8) 
0

>  <ADMET_BBB>  (8) 
-1.412

>  <ADMET_BBB_Level>  (8) 
3

>  <ADMET_EXT_CYP2D6>  (8) 
-14.3620247382179

>  <ADMET_EXT_CYP2D6#Prediction>  (8) 
false

>  <ADMET_EXT_CYP2D6_Applicability>  (8) 
All properties and OPS components are within expected ranges.

>  <ADMET_EXT_CYP2D6_Applicability#MD>  (8) 
11.673850753901

>  <ADMET_EXT_CYP2D6_Applicability#MDpvalue>  (8) 
0.00587649154374496

>  <ADMET_EXT_Hepatotoxic>  (8) 
-4.58917637818857

>  <ADMET_EXT_Hepatotoxic#Prediction>  (8) 
false

>  <ADMET_EXT_Hepatotoxic_Applicability>  (8) 
All properties and OPS components are within expected ranges.

>  <ADMET_EXT_Hepatotoxic_Applicability#MD>  (8) 
10.9441042501503

>  <ADMET_EXT_Hepatotoxic_Applicability#MDpvalue>  (8) 
0.00739240191251044

>  <ADMET_Absorption_Level>  (8) 
0

>  <ADMET_EXT_PPB>  (8) 
4.71490475776933

>  <ADMET_EXT_PPB#Prediction>  (8) 
true

>  <ADMET_EXT_PPB_Applicability>  (8) 
All properties and OPS components are within expected ranges.

>  <ADMET_EXT_PPB_Applicability#MD>  (8) 
12.5685864397324

>  <ADMET_EXT_PPB_Applicability#MDpvalue>  (8) 
0.0219771154984475

>  <ADMET_AlogP98>  (8) 
1.413

>  <ADMET_PSA_2D>  (8) 
107.106

$$$$
Molecule
     RDKit          3D

 32 34  0  0  0  0  0  0  0  0999 V2000
   -4.4226    1.4039    0.2516 S   0  0  0  0  0  0  0  0  0  0  0  0
    0.9574    0.5874   -0.0697 N   0  0  0  0  0  0  0  0  0  0  0  0
   -0.3145    1.3556    0.0372 C   0  0  0  0  0  0  0  0  0  0  0  0
   -2.7069    1.7637   -0.0118 N   0  0  0  0  0  0  0  0  0  0  0  0
   -1.7478    0.7395    0.1365 C   0  0  0  0  0  0  0  0  0  0  0  0
   -5.7985    0.2536    0.2477 C   0  0  0  0  0  0  0  0  0  0  0  0
    3.5490    0.8951    0.2789 C   0  0  0  0  0  0  0  0  0  0  0  0
   -4.1248    0.5402   -0.9397 O   0  0  0  0  0  0  0  0  0  0  0  0
   -5.1132    2.7147   -0.0683 O   0  0  0  0  0  0  0  0  0  0  0  0
    2.2040    1.4313   -0.2779 C   0  0  0  0  0  0  0  0  0  0  0  0
    0.9862   -0.9342   -0.0718 C   0  0  0  0  0  0  0  0  0  0  0  0
    4.7190    1.3577   -0.1828 N   0  0  0  0  0  0  0  0  0  0  0  0
   -0.2271    2.5979   -0.0157 O   0  0  0  0  0  0  0  0  0  0  0  0
    3.5644   -0.0208    1.1093 O   0  0  0  0  0  0  0  0  0  0  0  0
    8.4061    0.6939    0.1405 O   0  0  0  0  0  0  0  0  0  0  0  0
   -5.7240   -1.2201    0.1803 C   0  0  0  0  0  0  0  0  0  0  0  0
   -6.9819    0.8501    0.1866 C   0  0  0  0  0  0  0  0  0  0  0  0
    2.1450   -1.6679   -0.6397 C   0  0  0  0  0  0  0  0  0  0  0  0
   -0.0074   -1.6688    0.4038 C   0  0  0  0  0  0  0  0  0  0  0  0
   -8.1858   -1.2104    0.0512 C   0  0  0  0  0  0  0  0  0  0  0  0
    5.9403    0.7186    0.2752 C   0  0  0  0  0  0  0  0  0  0  0  0
   -6.8756   -1.9143    0.0908 C   0  0  0  0  0  0  0  0  0  0  0  0
   -8.2208    0.1137    0.0966 C   0  0  0  0  0  0  0  0  0  0  0  0
    7.2265    1.4036   -0.2564 C   0  0  1  0  0  0  0  0  0  0  0  0
    2.1602   -3.0024   -0.6569 C   0  0  0  0  0  0  0  0  0  0  0  0
   -0.0052   -3.1138    0.3856 C   0  0  0  0  0  0  0  0  0  0  0  0
    1.0363   -3.7565   -0.1229 C   0  0  0  0  0  0  0  0  0  0  0  0
   -9.6783   -2.0858   -0.0377 Cl  0  0  0  0  0  0  0  0  0  0  0  0
    9.5101    1.6156   -0.1185 C   0  0  0  0  0  0  0  0  0  0  0  0
    1.0423   -5.2524   -0.1466 C   0  0  0  0  0  0  0  0  0  0  0  0
    7.4648    2.7684    0.3538 C   0  0  0  0  0  0  0  0  0  0  0  0
    8.8393    3.0168   -0.2530 C   0  0  0  0  0  0  0  0  0  0  0  0
  2  3  1  0
  3  5  1  0
  4  1  1  0
  5  4  1  0
  6  1  1  0
  7 10  1  0
  8  1  2  0
  9  1  2  0
 10  2  1  0
 11  2  1  0
 12  7  1  0
 13  3  2  0
 14  7  2  0
 15 24  1  0
 16  6  2  0
 17  6  1  0
 18 11  2  0
 19 11  1  0
 20 22  2  0
 21 12  1  0
 22 16  1  0
 23 17  2  0
 24 21  1  1
 25 18  1  0
 26 19  2  0
 27 25  2  0
 28 20  1  0
 29 15  1  0
 30 27  1  0
 31 24  1  0
 32 31  1  0
 20 23  1  0
 27 26  1  0
 29 32  1  0
M  END
>  <Name>  (9) 
Molecule

>  <IDNUMBER>  (9) 
ASN 05458163

>  <Num_H_Acceptors_Lipinski>  (9) 
8

>  <Num_H_Donors_Lipinski>  (9) 
2

>  <Molecular_Weight>  (9) 
479.97694

>  <ALogP>  (9) 
2.152

>  <Num_RotatableBonds>  (9) 
9

>  <Molecular_PolarSurfaceArea>  (9) 
113.18

>  <Num_H_Acceptors>  (9) 
5

>  <Num_H_Donors>  (9) 
2

>  <ADMET_Solubility>  (9) 
-3.536

>  <ADMET_Solubility_Level>  (9) 
3

>  <ADMET_Unknown_AlogP98>  (9) 
0

>  <ADMET_BBB>  (9) 
-1.184

>  <ADMET_BBB_Level>  (9) 
3

>  <ADMET_EXT_CYP2D6>  (9) 
-13.6309964279896

>  <ADMET_EXT_CYP2D6#Prediction>  (9) 
false

>  <ADMET_EXT_CYP2D6_Applicability>  (9) 
All properties and OPS components are within expected ranges.

>  <ADMET_EXT_CYP2D6_Applicability#MD>  (9) 
14.1430083949372

>  <ADMET_EXT_CYP2D6_Applicability#MDpvalue>  (9) 
1.84099625985462e-05

>  <ADMET_EXT_Hepatotoxic>  (9) 
-6.54539889028401

>  <ADMET_EXT_Hepatotoxic#Prediction>  (9) 
false

>  <ADMET_EXT_Hepatotoxic_Applicability>  (9) 
OPS PC5 out of range. Value: 7.2828. Training min, max, SD, explained variance: -4.7382, 7.1496, 1.959, 0.0479.

>  <ADMET_EXT_Hepatotoxic_Applicability#MD>  (9) 
11.9427282127568

>  <ADMET_EXT_Hepatotoxic_Applicability#MDpvalue>  (9) 
0.000204113423974412

>  <ADMET_Absorption_Level>  (9) 
0

>  <ADMET_EXT_PPB>  (9) 
7.77298354131398

>  <ADMET_EXT_PPB#Prediction>  (9) 
true

>  <ADMET_EXT_PPB_Applicability>  (9) 
All properties and OPS components are within expected ranges.

>  <ADMET_EXT_PPB_Applicability#MD>  (9) 
13.202543326036

>  <ADMET_EXT_PPB_Applicability#MDpvalue>  (9) 
0.00274118562985438

>  <ADMET_AlogP98>  (9) 
2.152

>  <ADMET_PSA_2D>  (9) 
107.106

$$$$
Molecule
     RDKit          3D

 31 34  0  0  0  0  0  0  0  0999 V2000
    1.8919    2.7284    0.0010 C   0  0  0  0  0  0  0  0  0  0  0  0
    0.6571    2.0145   -0.1442 N   0  0  0  0  0  0  0  0  0  0  0  0
    3.3275    2.2650   -0.1658 C   0  0  0  0  0  0  0  0  0  0  0  0
    1.6197    3.9114    0.3377 N   0  0  0  0  0  0  0  0  0  0  0  0
   -0.3253    3.0077    0.1098 C   0  0  0  0  0  0  0  0  0  0  0  0
    0.2689    4.0958    0.3949 N   0  0  0  0  0  0  0  0  0  0  0  0
    3.8896    1.4214   -1.0235 C   0  0  0  0  0  0  0  0  0  0  0  0
   -4.2699    1.1678    0.0023 C   0  0  0  0  0  0  0  0  0  0  0  0
   -4.9008   -0.0757   -0.0803 N   0  0  0  0  0  0  0  0  0  0  0  0
   -2.1360    2.8863    0.1196 S   0  0  0  0  0  0  0  0  0  0  0  0
    4.3906    2.8240    0.6435 C   0  0  0  0  0  0  0  0  0  0  0  0
    5.2248    1.3586   -0.7837 O   0  0  0  0  0  0  0  0  0  0  0  0
    2.2539   -2.7074    0.6504 N   0  0  0  0  0  0  0  0  0  0  0  0
    5.5180    2.2314    0.2427 C   0  0  0  0  0  0  0  0  0  0  0  0
   -2.7895    1.2338   -0.1852 C   0  0  0  0  0  0  0  0  0  0  0  0
   -4.9202    2.1894    0.2527 O   0  0  0  0  0  0  0  0  0  0  0  0
    0.4179    0.5567   -0.2605 C   0  0  0  0  0  0  0  0  0  0  0  0
    4.4297   -4.4616   -0.0498 O   0  0  0  0  0  0  0  0  0  0  0  0
    1.3639   -0.3438    0.6096 C   0  0  0  0  0  0  0  0  0  0  0  0
    1.1688   -1.8161    0.1618 C   0  0  0  0  0  0  0  0  0  0  0  0
   -6.3282   -0.1203    0.1273 C   0  0  0  0  0  0  0  0  0  0  0  0
   -4.0607   -1.2202   -0.3828 C   0  0  0  0  0  0  0  0  0  0  0  0
    3.2257    0.6419   -2.1372 C   0  0  0  0  0  0  0  0  0  0  0  0
    2.0258   -4.0497    0.0748 C   0  0  0  0  0  0  0  0  0  0  0  0
    3.5551   -2.2032    0.1595 C   0  0  0  0  0  0  0  0  0  0  0  0
    3.1906   -4.9946    0.4520 C   0  0  0  0  0  0  0  0  0  0  0  0
    4.6872   -3.1782    0.5433 C   0  0  0  0  0  0  0  0  0  0  0  0
   -7.0843   -1.3047   -0.5127 C   0  0  0  0  0  0  0  0  0  0  0  0
   -4.3182   -2.4878    0.4509 C   0  0  0  0  0  0  0  0  0  0  0  0
   -5.5187   -3.2988   -0.0373 C   0  0  0  0  0  0  0  0  0  0  0  0
   -6.8780   -2.6418    0.2150 C   0  0  0  0  0  0  0  0  0  0  0  0
  2  1  1  0
  3  1  1  0
  4  1  2  0
  5  2  1  0
  6  4  1  0
  7  3  2  0
  8 15  1  0
  9  8  1  0
 10  5  1  0
 11  3  1  0
 12  7  1  0
 13 20  1  0
 14 11  2  0
 15 10  1  0
 16  8  2  0
 17  2  1  0
 18 26  1  0
 19 17  1  0
 20 19  1  0
 21  9  1  0
 22  9  1  0
 23  7  1  0
 24 13  1  0
 25 13  1  0
 26 24  1  0
 27 25  1  0
 28 21  1  0
 29 22  1  0
 30 29  1  0
 31 28  1  0
  6  5  2  0
 12 14  1  0
 18 27  1  0
 31 30  1  0
M  END
>  <Name>  (10) 
Molecule

>  <IDNUMBER>  (10) 
ASN 05918432

>  <Num_H_Acceptors_Lipinski>  (10) 
8

>  <Num_H_Donors_Lipinski>  (10) 
0

>  <Molecular_Weight>  (10) 
447.59412

>  <ALogP>  (10) 
2.185

>  <Num_RotatableBonds>  (10) 
8

>  <Molecular_PolarSurfaceArea>  (10) 
101.93

>  <Num_H_Acceptors>  (10) 
6

>  <Num_H_Donors>  (10) 
0

>  <ADMET_Solubility>  (10) 
-3.064

>  <ADMET_Solubility_Level>  (10) 
3

>  <ADMET_Unknown_AlogP98>  (10) 
0

>  <ADMET_BBB>  (10) 
-0.639

>  <ADMET_BBB_Level>  (10) 
3

>  <ADMET_EXT_CYP2D6>  (10) 
-8.11501301693769

>  <ADMET_EXT_CYP2D6#Prediction>  (10) 
false

>  <ADMET_EXT_CYP2D6_Applicability>  (10) 
All properties and OPS components are within expected ranges.
Unknown FCFP_2 feature: 690481386: [*]:n:[c](:n:[*])[c](:[*]):[*]
Unknown FCFP_2 feature: -1410079687: [*]N([*])[c]1:n:[*]:[*]:n:1[*]

>  <ADMET_EXT_CYP2D6_Applicability#MD>  (10) 
18.0375342576777

>  <ADMET_EXT_CYP2D6_Applicability#MDpvalue>  (10) 
6.42697156990881e-10

>  <ADMET_EXT_Hepatotoxic>  (10) 
-6.43972711718804

>  <ADMET_EXT_Hepatotoxic#Prediction>  (10) 
false

>  <ADMET_EXT_Hepatotoxic_Applicability>  (10) 
OPS PC23 out of range. Value: 2.9075. Training min, max, SD, explained variance: -4.97, 2.7339, 0.967, 0.0117.

>  <ADMET_EXT_Hepatotoxic_Applicability#MD>  (10) 
15.096217711393

>  <ADMET_EXT_Hepatotoxic_Applicability#MDpvalue>  (10) 
1.64619753034097e-11

>  <ADMET_Absorption_Level>  (10) 
0

>  <ADMET_EXT_PPB>  (10) 
-4.9737020262687

>  <ADMET_EXT_PPB#Prediction>  (10) 
false

>  <ADMET_EXT_PPB_Applicability>  (10) 
All properties and OPS components are within expected ranges.

>  <ADMET_EXT_PPB_Applicability#MD>  (10) 
14.7940718097892

>  <ADMET_EXT_PPB_Applicability#MDpvalue>  (10) 
2.05447033681829e-06

>  <ADMET_AlogP98>  (10) 
2.185

>  <ADMET_PSA_2D>  (10) 
73.36

$$$$
Molecule
     RDKit          3D

 22 24  0  0  0  0  0  0  0  0999 V2000
   -1.4133    1.7056   -0.0698 N   0  0  0  0  0  0  0  0  0  0  0  0
   -1.0395   -1.5991   -0.4298 N   0  0  0  0  0  0  0  0  0  0  0  0
   -2.2528   -0.8567   -0.2035 C   0  0  0  0  0  0  0  0  0  0  0  0
    0.1248   -1.4810    0.2193 C   0  0  0  0  0  0  0  0  0  0  0  0
   -2.4243    0.6711    0.0140 C   0  0  0  0  0  0  0  0  0  0  0  0
    2.5807   -1.8892    0.2155 N   0  0  0  0  0  0  0  0  0  0  0  0
    1.2570   -2.4106   -0.1699 C   0  0  0  0  0  0  0  0  0  0  0  0
    0.2639   -0.6729    1.1459 O   0  0  0  0  0  0  0  0  0  0  0  0
    0.4848    3.8901   -0.1092 O   0  0  0  0  0  0  0  0  0  0  0  0
    5.0874   -1.1534    0.5571 O   0  0  0  0  0  0  0  0  0  0  0  0
   -1.7807    3.0416    0.3659 C   0  0  0  0  0  0  0  0  0  0  0  0
   -0.1457    1.5519   -0.7335 C   0  0  0  0  0  0  0  0  0  0  0  0
    2.9196   -0.7108   -0.5725 C   0  0  0  0  0  0  0  0  0  0  0  0
    3.5969   -2.9415   -0.0723 C   0  0  0  0  0  0  0  0  0  0  0  0
   -3.3470   -1.6176   -0.1617 C   0  0  0  0  0  0  0  0  0  0  0  0
   -3.6579    1.1240    0.2614 C   0  0  0  0  0  0  0  0  0  0  0  0
    0.8745    2.4962   -0.0422 C   0  0  0  0  0  0  0  0  0  0  0  0
   -0.9172    4.0681   -0.3953 C   0  0  0  0  0  0  0  0  0  0  0  0
    4.2201   -0.1065    0.0332 C   0  0  0  0  0  0  0  0  0  0  0  0
    5.0029   -2.3046   -0.2658 C   0  0  0  0  0  0  0  0  0  0  0  0
   -4.6662   -1.0610    0.0991 C   0  0  0  0  0  0  0  0  0  0  0  0
   -4.8113    0.2391    0.3147 C   0  0  0  0  0  0  0  0  0  0  0  0
  2  3  1  0
  3  5  1  0
  4  2  1  0
  5  1  1  0
  6  7  1  0
  7  4  1  0
  8  4  2  0
  9 17  1  0
 10 19  1  0
 11  1  1  0
 12  1  1  0
 13  6  1  0
 14  6  1  0
 15  3  2  0
 16  5  2  0
 17 12  1  0
 18 11  1  0
 19 13  1  0
 20 14  1  0
 21 22  2  0
 22 16  1  0
  9 18  1  0
 21 15  1  0
 10 20  1  0
M  END
>  <Name>  (11) 
Molecule

>  <IDNUMBER>  (11) 
ASN 06978326

>  <Num_H_Acceptors_Lipinski>  (11) 
6

>  <Num_H_Donors_Lipinski>  (11) 
1

>  <Molecular_Weight>  (11) 
305.37212

>  <ALogP>  (11) 
0.494

>  <Num_RotatableBonds>  (11) 
4

>  <Molecular_PolarSurfaceArea>  (11) 
54.04

>  <Num_H_Acceptors>  (11) 
5

>  <Num_H_Donors>  (11) 
1

>  <ADMET_Solubility>  (11) 
-1.896

>  <ADMET_Solubility_Level>  (11) 
4

>  <ADMET_Unknown_AlogP98>  (11) 
0

>  <ADMET_BBB>  (11) 
-0.867

>  <ADMET_BBB_Level>  (11) 
3

>  <ADMET_EXT_CYP2D6>  (11) 
-7.10409063851938

>  <ADMET_EXT_CYP2D6#Prediction>  (11) 
false

>  <ADMET_EXT_CYP2D6_Applicability>  (11) 
All properties and OPS components are within expected ranges.

>  <ADMET_EXT_CYP2D6_Applicability#MD>  (11) 
15.3768108045307

>  <ADMET_EXT_CYP2D6_Applicability#MDpvalue>  (11) 
7.62503129832381e-07

>  <ADMET_EXT_Hepatotoxic>  (11) 
-5.45277895776484

>  <ADMET_EXT_Hepatotoxic#Prediction>  (11) 
false

>  <ADMET_EXT_Hepatotoxic_Applicability>  (11) 
All properties and OPS components are within expected ranges.

>  <ADMET_EXT_Hepatotoxic_Applicability#MD>  (11) 
10.44969698129

>  <ADMET_EXT_Hepatotoxic_Applicability#MDpvalue>  (11) 
0.0306907871093676

>  <ADMET_Absorption_Level>  (11) 
0

>  <ADMET_EXT_PPB>  (11) 
-5.18267113677155

>  <ADMET_EXT_PPB#Prediction>  (11) 
false

>  <ADMET_EXT_PPB_Applicability>  (11) 
All properties and OPS components are within expected ranges.

>  <ADMET_EXT_PPB_Applicability#MD>  (11) 
11.6279151257236

>  <ADMET_EXT_PPB_Applicability#MDpvalue>  (11) 
0.199535114814256

>  <ADMET_AlogP98>  (11) 
0.494

>  <ADMET_PSA_2D>  (11) 
54.676

$$$$
Molecule
     RDKit          3D

 27 30  0  0  0  0  0  0  0  0999 V2000
    0.9480    3.0299    0.0194 N   0  0  0  0  0  0  0  0  0  0  0  0
   -0.3503    2.7516   -0.0187 C   0  0  0  0  0  0  0  0  0  0  0  0
   -0.8631    1.3854   -0.2241 C   0  0  0  0  0  0  0  0  0  0  0  0
    1.0931    4.3218    0.2173 N   0  0  0  0  0  0  0  0  0  0  0  0
   -0.0325    4.8057    0.2937 N   0  0  0  0  0  0  0  0  0  0  0  0
   -0.9864    3.8175    0.1473 N   0  0  0  0  0  0  0  0  0  0  0  0
    1.9233    2.0690   -0.1143 C   0  0  0  0  0  0  0  0  0  0  0  0
    0.0471    0.4363   -0.4008 C   0  0  0  0  0  0  0  0  0  0  0  0
    1.4789    0.7127   -0.3554 C   0  0  0  0  0  0  0  0  0  0  0  0
   -2.4267    1.1361   -0.1949 C   0  0  0  0  0  0  0  0  0  0  0  0
   -3.0860   -0.2565   -0.1955 N   0  0  0  0  0  0  0  0  0  0  0  0
   -4.4790   -0.3081   -0.0161 C   0  0  0  0  0  0  0  0  0  0  0  0
   -0.5217   -2.9366    0.2628 N   0  0  0  0  0  0  0  0  0  0  0  0
    3.2231    2.3429   -0.0221 C   0  0  0  0  0  0  0  0  0  0  0  0
   -5.0609   -1.3991   -0.0366 O   0  0  0  0  0  0  0  0  0  0  0  0
   -2.4025   -1.5377   -0.4363 C   0  0  0  0  0  0  0  0  0  0  0  0
    2.3543   -0.2742   -0.4904 C   0  0  0  0  0  0  0  0  0  0  0  0
    1.1085   -5.2667    0.2266 O   0  0  0  0  0  0  0  0  0  0  0  0
   -1.5440   -2.0027    0.7783 C   0  0  0  0  0  0  0  0  0  0  0  0
    4.2000    1.2495   -0.1702 C   0  0  0  0  0  0  0  0  0  0  0  0
    3.7812    0.0046   -0.3973 C   0  0  0  0  0  0  0  0  0  0  0  0
   -1.1023   -4.2436   -0.0767 C   0  0  0  0  0  0  0  0  0  0  0  0
    0.5804   -3.1066    1.2152 C   0  0  0  0  0  0  0  0  0  0  0  0
   -5.2703    0.9550    0.1912 C   0  0  0  0  0  0  0  0  0  0  0  0
    0.0076   -5.1296   -0.6941 C   0  0  0  0  0  0  0  0  0  0  0  0
    1.6653   -3.9812    0.5474 C   0  0  0  0  0  0  0  0  0  0  0  0
    5.6681    1.5285   -0.0614 C   0  0  0  0  0  0  0  0  0  0  0  0
  2  1  1  0
  3  2  1  0
  4  1  1  0
  5  4  2  0
  6  2  2  0
  7  1  1  0
  8  9  1  0
  9  7  2  0
 10  3  1  0
 11 10  1  0
 12 11  1  0
 13 19  1  0
 14  7  1  0
 15 12  2  0
 16 11  1  0
 17  9  1  0
 18 25  1  0
 19 16  1  0
 20 14  2  0
 21 20  1  0
 22 13  1  0
 23 13  1  0
 24 12  1  0
 25 22  1  0
 26 23  1  0
 27 20  1  0
  5  6  1  0
  8  3  2  0
 21 17  2  0
 18 26  1  0
M  END
>  <Name>  (12) 
Molecule

>  <IDNUMBER>  (12) 
ASN 07169843

>  <Num_H_Acceptors_Lipinski>  (12) 
8

>  <Num_H_Donors_Lipinski>  (12) 
0

>  <Molecular_Weight>  (12) 
368.43286

>  <ALogP>  (12) 
0.603

>  <Num_RotatableBonds>  (12) 
5

>  <Molecular_PolarSurfaceArea>  (12) 
75.86

>  <Num_H_Acceptors>  (12) 
6

>  <Num_H_Donors>  (12) 
0

>  <ADMET_Solubility>  (12) 
-3.345

>  <ADMET_Solubility_Level>  (12) 
3

>  <ADMET_Unknown_AlogP98>  (12) 
0

>  <ADMET_BBB>  (12) 
-0.811

>  <ADMET_BBB_Level>  (12) 
3

>  <ADMET_EXT_CYP2D6>  (12) 
-6.59876316953321

>  <ADMET_EXT_CYP2D6#Prediction>  (12) 
false

>  <ADMET_EXT_CYP2D6_Applicability>  (12) 
All properties and OPS components are within expected ranges.
Unknown FCFP_2 feature: -332197802: [*]:[c](:[*]):n1:n:[*]:[*]:[c]:1:[*]
Unknown FCFP_2 feature: -1564473960: [*]:[cH]:[c]1:n:[*]:[*]:n:1:[*]

>  <ADMET_EXT_CYP2D6_Applicability#MD>  (12) 
18.8089203935301

>  <ADMET_EXT_CYP2D6_Applicability#MDpvalue>  (12) 
8.23490012288378e-11

>  <ADMET_EXT_Hepatotoxic>  (12) 
-5.03532642848363

>  <ADMET_EXT_Hepatotoxic#Prediction>  (12) 
false

>  <ADMET_EXT_Hepatotoxic_Applicability>  (12) 
All properties and OPS components are within expected ranges.
Unknown FCFP_2 feature: -332197802: [*]:[c](:[*]):n1:n:[*]:[*]:[c]:1:[*]

>  <ADMET_EXT_Hepatotoxic_Applicability#MD>  (12) 
15.8307286896432

>  <ADMET_EXT_Hepatotoxic_Applicability#MDpvalue>  (12) 
1.61303879492966e-13

>  <ADMET_Absorption_Level>  (12) 
0

>  <ADMET_EXT_PPB>  (12) 
-2.85780689313954

>  <ADMET_EXT_PPB#Prediction>  (12) 
false

>  <ADMET_EXT_PPB_Applicability>  (12) 
All properties and OPS components are within expected ranges.

>  <ADMET_EXT_PPB_Applicability#MD>  (12) 
14.0835158350571

>  <ADMET_EXT_PPB_Applicability#MDpvalue>  (12) 
7.1181572107495e-05

>  <ADMET_AlogP98>  (12) 
1.562

>  <ADMET_PSA_2D>  (12) 
72.067

$$$$
Molecule
     RDKit          3D

 27 30  0  0  0  0  0  0  0  0999 V2000
   -5.1427   -1.1343   -0.1532 N   0  0  0  0  0  0  0  0  0  0  0  0
   -3.7812   -1.0724   -0.0687 C   0  0  0  0  0  0  0  0  0  0  0  0
   -3.3659   -2.2533    0.1030 N   0  0  0  0  0  0  0  0  0  0  0  0
   -4.4700   -3.0621    0.1242 N   0  0  0  0  0  0  0  0  0  0  0  0
   -5.4901   -2.4013   -0.0275 N   0  0  0  0  0  0  0  0  0  0  0  0
    5.4297    0.9263   -0.0633 C   0  0  0  0  0  0  0  0  0  0  0  0
    4.0143    0.9492   -0.2194 N   0  0  0  0  0  0  0  0  0  0  0  0
    1.2332    1.0761    0.2001 N   0  0  0  0  0  0  0  0  0  0  0  0
    6.2270   -0.3272   -0.0030 C   0  0  0  0  0  0  0  0  0  0  0  0
   -0.1614    1.1532    0.0388 C   0  0  0  0  0  0  0  0  0  0  0  0
   -2.7476    0.3728   -0.1777 S   0  0  0  0  0  0  0  0  0  0  0  0
    5.7469   -1.6000   -0.0723 O   0  0  0  0  0  0  0  0  0  0  0  0
   -6.0719   -0.0452   -0.3704 C   0  0  0  0  0  0  0  0  0  0  0  0
   -1.0059   -0.0946    0.0067 C   0  0  0  0  0  0  0  0  0  0  0  0
    3.3621    2.2247   -0.3616 C   0  0  0  0  0  0  0  0  0  0  0  0
    3.2411   -0.2604   -0.3737 C   0  0  0  0  0  0  0  0  0  0  0  0
    1.9941    2.2874    0.3457 C   0  0  0  0  0  0  0  0  0  0  0  0
    1.8810   -0.1999    0.3539 C   0  0  0  0  0  0  0  0  0  0  0  0
    6.0296    2.0044    0.0085 O   0  0  0  0  0  0  0  0  0  0  0  0
    7.5477   -0.3457    0.1248 C   0  0  0  0  0  0  0  0  0  0  0  0
   -0.7063    2.2597   -0.0404 O   0  0  0  0  0  0  0  0  0  0  0  0
    6.8092   -2.4632    0.0150 C   0  0  0  0  0  0  0  0  0  0  0  0
    7.9285   -1.7481    0.1368 C   0  0  0  0  0  0  0  0  0  0  0  0
   -5.8196    1.1982    0.4605 C   0  0  0  0  0  0  0  0  0  0  0  0
   -7.4824   -0.3908    0.0687 C   0  0  0  0  0  0  0  0  0  0  0  0
   -7.0540    2.0356    0.0623 C   0  0  0  0  0  0  0  0  0  0  0  0
   -8.1963    0.9725   -0.1187 C   0  0  0  0  0  0  0  0  0  0  0  0
  2  1  1  0
  3  2  2  0
  4  5  2  0
  5  1  1  0
  6  7  1  0
  7 16  1  0
  8 10  1  0
  9  6  1  0
 10 14  1  0
 11  2  1  0
 12  9  1  0
 13  1  1  0
 14 11  1  0
 15 17  1  0
 16 18  1  0
 17  8  1  0
 18  8  1  0
 19  6  2  0
 20  9  2  0
 21 10  2  0
 22 12  1  0
 23 20  1  0
 24 13  1  0
 25 13  1  0
 26 24  1  0
 27 25  1  0
  4  3  1  0
 26 27  1  0
  7 15  1  0
 22 23  2  0
M  END
>  <Name>  (13) 
Molecule

>  <IDNUMBER>  (13) 
ASN 07870580

>  <Num_H_Acceptors_Lipinski>  (13) 
9

>  <Num_H_Donors_Lipinski>  (13) 
0

>  <Molecular_Weight>  (13) 
390.45998

>  <ALogP>  (13) 
1.167

>  <Num_RotatableBonds>  (13) 
5

>  <Molecular_PolarSurfaceArea>  (13) 
122.66

>  <Num_H_Acceptors>  (13) 
6

>  <Num_H_Donors>  (13) 
0

>  <ADMET_Solubility>  (13) 
-2.696

>  <ADMET_Solubility_Level>  (13) 
3

>  <ADMET_Unknown_AlogP98>  (13) 
0

>  <ADMET_BBB>  (13) 
-1.157

>  <ADMET_BBB_Level>  (13) 
3

>  <ADMET_EXT_CYP2D6>  (13) 
-10.9979682252229

>  <ADMET_EXT_CYP2D6#Prediction>  (13) 
false

>  <ADMET_EXT_CYP2D6_Applicability>  (13) 
All properties and OPS components are within expected ranges.
Unknown FCFP_2 feature: -1410079687: [*]N([*])[c]1:n:[*]:[*]:n:1[*]

>  <ADMET_EXT_CYP2D6_Applicability#MD>  (13) 
15.3488940826491

>  <ADMET_EXT_CYP2D6_Applicability#MDpvalue>  (13) 
8.20427387081146e-07

>  <ADMET_EXT_Hepatotoxic>  (13) 
-7.10387466267712

>  <ADMET_EXT_Hepatotoxic#Prediction>  (13) 
false

>  <ADMET_EXT_Hepatotoxic_Applicability>  (13) 
All properties and OPS components are within expected ranges.
Unknown FCFP_2 feature: 1315386651: [*]C(=[*])C(C)n(:[*]):[*]

>  <ADMET_EXT_Hepatotoxic_Applicability#MD>  (13) 
13.3449293215135

>  <ADMET_EXT_Hepatotoxic_Applicability#MDpvalue>  (13) 
3.2391644875244e-07

>  <ADMET_Absorption_Level>  (13) 
0

>  <ADMET_EXT_PPB>  (13) 
-10.4879305800906

>  <ADMET_EXT_PPB#Prediction>  (13) 
false

>  <ADMET_EXT_PPB_Applicability>  (13) 
OPS PC37 out of range. Value: -3.2664. Training min, max, SD, explained variance: -3.2357, 3.588, 0.9593, 0.0076.

>  <ADMET_EXT_PPB_Applicability#MD>  (13) 
11.9196874560872

>  <ADMET_EXT_PPB_Applicability#MDpvalue>  (13) 
0.112787482319277

>  <ADMET_AlogP98>  (13) 
1.516

>  <ADMET_PSA_2D>  (13) 
92.992

$$$$
Molecule
     RDKit          3D

 19 20  0  0  0  0  0  0  0  0999 V2000
    3.1196   -0.9422   -0.0251 N   0  0  0  0  0  0  0  0  0  0  0  0
    4.1471   -0.0563    0.0335 C   0  0  0  0  0  0  0  0  0  0  0  0
    3.6902    1.1326    0.0869 N   0  0  0  0  0  0  0  0  0  0  0  0
    2.3169    1.0811    0.0601 N   0  0  0  0  0  0  0  0  0  0  0  0
    1.9476   -0.1391   -0.0069 C   0  0  0  0  0  0  0  0  0  0  0  0
   -2.8179    1.0480   -0.1455 C   0  0  0  0  0  0  0  0  0  0  0  0
    0.4895   -0.5604   -0.0741 C   0  0  0  0  0  0  0  0  0  0  0  0
   -4.2186    0.5354   -0.3156 C   0  0  1  0  0  0  0  0  0  0  0  0
   -2.6131    2.2598   -0.0149 O   0  0  0  0  0  0  0  0  0  0  0  0
    5.8631   -0.4985    0.0339 S   0  0  0  0  0  0  0  0  0  0  0  0
   -4.4247   -0.8006    0.1508 O   0  0  0  0  0  0  0  0  0  0  0  0
   -1.7992    0.1939   -0.1512 N   0  0  0  0  0  0  0  0  0  0  0  0
    3.3433   -2.4149   -0.1137 C   0  0  0  0  0  0  0  0  0  0  0  0
   -0.4462    0.6594   -0.0136 C   0  0  0  0  0  0  0  0  0  0  0  0
   -5.8830   -0.9340    0.2347 C   0  0  0  0  0  0  0  0  0  0  0  0
   -5.3091    1.3758    0.2944 C   0  0  0  0  0  0  0  0  0  0  0  0
    6.8794    0.9972    0.0489 C   0  0  0  0  0  0  0  0  0  0  0  0
    2.1316   -3.3635    0.0555 C   0  0  0  0  0  0  0  0  0  0  0  0
   -6.4478    0.4708   -0.1368 C   0  0  0  0  0  0  0  0  0  0  0  0
  2  1  1  0
  3  2  2  0
  4  5  2  0
  5  1  1  0
  6 12  1  0
  7  5  1  0
  8  6  1  1
  9  6  2  0
 10  2  1  0
 11  8  1  0
 12 14  1  0
 13  1  1  0
 14  7  1  0
 15 11  1  0
 16  8  1  0
 17 10  1  0
 18 13  1  0
 19 16  1  0
  3  4  1  0
 15 19  1  0
M  END
>  <Name>  (14) 
Molecule

>  <IDNUMBER>  (14) 
ASN 10349863

>  <Num_H_Acceptors_Lipinski>  (14) 
6

>  <Num_H_Donors_Lipinski>  (14) 
1

>  <Molecular_Weight>  (14) 
284.3778

>  <ALogP>  (14) 
0.733

>  <Num_RotatableBonds>  (14) 
6

>  <Molecular_PolarSurfaceArea>  (14) 
94.34

>  <Num_H_Acceptors>  (14) 
5

>  <Num_H_Donors>  (14) 
1

>  <ADMET_Solubility>  (14) 
-1.753

>  <ADMET_Solubility_Level>  (14) 
4

>  <ADMET_Unknown_AlogP98>  (14) 
0

>  <ADMET_BBB>  (14) 
-0.986

>  <ADMET_BBB_Level>  (14) 
3

>  <ADMET_EXT_CYP2D6>  (14) 
-8.18543790350833

>  <ADMET_EXT_CYP2D6#Prediction>  (14) 
false

>  <ADMET_EXT_CYP2D6_Applicability>  (14) 
All properties and OPS components are within expected ranges.
Unknown FCFP_2 feature: -1410079687: [*]N([*])[c]1:n:[*]:[*]:n:1[*]

>  <ADMET_EXT_CYP2D6_Applicability#MD>  (14) 
14.2869015034321

>  <ADMET_EXT_CYP2D6_Applicability#MDpvalue>  (14) 
1.27839103249032e-05

>  <ADMET_EXT_Hepatotoxic>  (14) 
-8.13624577511637

>  <ADMET_EXT_Hepatotoxic#Prediction>  (14) 
false

>  <ADMET_EXT_Hepatotoxic_Applicability>  (14) 
All properties and OPS components are within expected ranges.

>  <ADMET_EXT_Hepatotoxic_Applicability#MD>  (14) 
16.1245088800761

>  <ADMET_EXT_Hepatotoxic_Applicability#MDpvalue>  (14) 
2.37429894095912e-14

>  <ADMET_Absorption_Level>  (14) 
0

>  <ADMET_EXT_PPB>  (14) 
1.36508353223289

>  <ADMET_EXT_PPB#Prediction>  (14) 
true

>  <ADMET_EXT_PPB_Applicability>  (14) 
All properties and OPS components are within expected ranges.

>  <ADMET_EXT_PPB_Applicability#MD>  (14) 
16.2392610086316

>  <ADMET_EXT_PPB_Applicability#MDpvalue>  (14) 
3.43626416202589e-10

>  <ADMET_AlogP98>  (14) 
0.733

>  <ADMET_PSA_2D>  (14) 
66.911

$$$$
Molecule
     RDKit          3D

 30 32  0  0  0  0  0  0  0  0999 V2000
   -6.0996    2.4796    0.0238 C   0  0  0  0  0  0  0  0  0  0  0  0
   -4.9091    1.7394    0.1121 N   0  0  0  0  0  0  0  0  0  0  0  0
    0.0087    0.5056   -0.1209 C   0  0  0  0  0  0  0  0  0  0  0  0
   -6.0651    3.9642    0.3257 C   0  0  0  0  0  0  0  0  0  0  0  0
    1.4365    0.0288    0.1613 C   0  0  2  0  0  0  0  0  0  0  0  0
    3.1284   -2.0227   -0.0232 C   0  0  0  0  0  0  0  0  0  0  0  0
    2.3702    0.9504   -0.4633 N   0  0  0  0  0  0  0  0  0  0  0  0
   -6.6656    4.7524   -0.8593 C   0  0  0  0  0  0  0  0  0  0  0  0
   -7.5102    4.5091    0.3897 C   0  0  0  0  0  0  0  0  0  0  0  0
   -1.0923   -0.2077    0.1609 N   0  0  0  0  0  0  0  0  0  0  0  0
    3.5368   -3.3369   -0.0587 C   0  0  0  0  0  0  0  0  0  0  0  0
    1.6508   -1.4892   -0.2002 C   0  0  0  0  0  0  0  0  0  0  0  0
    2.4712    2.2222   -0.0492 C   0  0  0  0  0  0  0  0  0  0  0  0
   -4.8870    0.3271   -0.3087 C   0  0  0  0  0  0  0  0  0  0  0  0
   -3.7160    2.4645    0.4818 C   0  0  0  0  0  0  0  0  0  0  0  0
   -7.1477    1.9424   -0.3514 O   0  0  0  0  0  0  0  0  0  0  0  0
   -0.1385    1.6173   -0.6432 O   0  0  0  0  0  0  0  0  0  0  0  0
    4.9909   -3.6244    0.0874 C   0  0  0  0  0  0  0  0  0  0  0  0
    1.7561    2.6421    0.8703 O   0  0  0  0  0  0  0  0  0  0  0  0
   -2.3626    0.4491   -0.1337 C   0  0  0  0  0  0  0  0  0  0  0  0
   -2.5397    1.5911    0.8698 C   0  0  0  0  0  0  0  0  0  0  0  0
   -3.5860   -0.4453    0.0952 C   0  0  0  0  0  0  0  0  0  0  0  0
    2.7508   -4.5797   -0.2429 O   0  0  0  0  0  0  0  0  0  0  0  0
    5.4192   -4.9658    0.0322 O   0  0  0  0  0  0  0  0  0  0  0  0
    4.1702   -0.9941    0.1853 C   0  0  0  0  0  0  0  0  0  0  0  0
    5.4561   -1.2871    0.3121 C   0  0  0  0  0  0  0  0  0  0  0  0
    3.4558    3.1433   -0.7004 C   0  0  0  0  0  0  0  0  0  0  0  0
    5.8818   -2.6516    0.2596 C   0  0  0  0  0  0  0  0  0  0  0  0
    1.3180   -4.6089   -0.3870 C   0  0  0  0  0  0  0  0  0  0  0  0
    6.8475   -5.0748    0.1740 C   0  0  0  0  0  0  0  0  0  0  0  0
  2  1  1  0
  3 10  1  0
  4  1  1  0
  5  3  1  0
  6 12  1  0
  7  5  1  0
  8  4  1  0
  9  4  1  0
 10 20  1  0
 11  6  2  0
  5 12  1  6
 13  7  1  0
 14  2  1  0
 15  2  1  0
 16  1  2  0
 17  3  2  0
 18 11  1  0
 19 13  2  0
 20 22  1  0
 21 15  1  0
 22 14  1  0
 23 11  1  0
 24 18  1  0
 25  6  1  0
 26 25  2  0
 27 13  1  0
 28 26  1  0
 29 23  1  0
 30 24  1  0
  9  8  1  0
 21 20  1  0
 28 18  2  0
M  END
>  <Name>  (15) 
Molecule

>  <IDNUMBER>  (15) 
ASN 10814020

>  <Num_H_Acceptors_Lipinski>  (15) 
8

>  <Num_H_Donors_Lipinski>  (15) 
2

>  <Molecular_Weight>  (15) 
417.49864

>  <ALogP>  (15) 
0.569

>  <Num_RotatableBonds>  (15) 
8

>  <Molecular_PolarSurfaceArea>  (15) 
96.97

>  <Num_H_Acceptors>  (15) 
5

>  <Num_H_Donors>  (15) 
2

>  <ADMET_Solubility>  (15) 
-1.853

>  <ADMET_Solubility_Level>  (15) 
4

>  <ADMET_Unknown_AlogP98>  (15) 
0

>  <ADMET_BBB>  (15) 
-1.541

>  <ADMET_BBB_Level>  (15) 
3

>  <ADMET_EXT_CYP2D6>  (15) 
-11.0090016644159

>  <ADMET_EXT_CYP2D6#Prediction>  (15) 
false

>  <ADMET_EXT_CYP2D6_Applicability>  (15) 
All properties and OPS components are within expected ranges.

>  <ADMET_EXT_CYP2D6_Applicability#MD>  (15) 
13.8449272995147

>  <ADMET_EXT_CYP2D6_Applicability#MDpvalue>  (15) 
3.89098319760473e-05

>  <ADMET_EXT_Hepatotoxic>  (15) 
-4.64493270096631

>  <ADMET_EXT_Hepatotoxic#Prediction>  (15) 
false

>  <ADMET_EXT_Hepatotoxic_Applicability>  (15) 
OPS PC27 out of range. Value: -2.6639. Training min, max, SD, explained variance: -2.3945, 4.4682, 0.8755, 0.0096.

>  <ADMET_EXT_Hepatotoxic_Applicability#MD>  (15) 
10.0247551984549

>  <ADMET_EXT_Hepatotoxic_Applicability#MDpvalue>  (15) 
0.0853255387036946

>  <ADMET_Absorption_Level>  (15) 
0

>  <ADMET_EXT_PPB>  (15) 
-8.82389705013192

>  <ADMET_EXT_PPB#Prediction>  (15) 
false

>  <ADMET_EXT_PPB_Applicability>  (15) 
All properties and OPS components are within expected ranges.

>  <ADMET_EXT_PPB_Applicability#MD>  (15) 
15.0773145941639

>  <ADMET_EXT_PPB_Applicability#MDpvalue>  (15) 
4.34646173914768e-07

>  <ADMET_AlogP98>  (15) 
0.569

>  <ADMET_PSA_2D>  (15) 
98.735

$$$$
Molecule
     RDKit          3D

 32 35  0  0  0  0  0  0  0  0999 V2000
    7.4475   -7.4442   -0.0116 C   0  0  0  0  0  0  0  0  0  0  0  0
    8.8744   -7.3008    0.0341 N   0  0  0  0  0  0  0  0  0  0  0  0
    6.9962   -6.2657   -0.1611 N   0  0  0  0  0  0  0  0  0  0  0  0
    9.1112   -6.0051   -0.0602 N   0  0  0  0  0  0  0  0  0  0  0  0
    8.0520   -5.4087   -0.1852 N   0  0  0  0  0  0  0  0  0  0  0  0
    6.5534   -8.5740    0.1039 N   0  0  0  0  0  0  0  0  0  0  0  0
    2.7508  -12.1876    0.0390 C   0  0  0  0  0  0  0  0  0  0  0  0
    2.1645  -13.5637   -0.2288 C   0  0  1  0  0  0  0  0  0  0  0  0
    2.9703  -14.6350    0.3621 N   0  0  0  0  0  0  0  0  0  0  0  0
    4.0674  -12.0191    0.0890 N   0  0  0  0  0  0  0  0  0  0  0  0
    9.9780   -8.2519   -0.0085 C   0  0  0  0  0  0  0  0  0  0  0  0
    4.2311  -14.9020   -0.0016 C   0  0  0  0  0  0  0  0  0  0  0  0
    5.1380   -8.3508   -0.1963 C   0  0  0  0  0  0  0  0  0  0  0  0
    6.9337   -9.7654    0.8225 C   0  0  0  0  0  0  0  0  0  0  0  0
    1.9893  -11.2404    0.2658 O   0  0  0  0  0  0  0  0  0  0  0  0
    0.6960  -13.5552    0.2748 C   0  0  0  0  0  0  0  0  0  0  0  0
    4.7945  -14.2371   -0.8788 O   0  0  0  0  0  0  0  0  0  0  0  0
    4.6990  -10.7673    0.4102 C   0  0  0  0  0  0  0  0  0  0  0  0
    6.1896  -11.0139    0.3698 C   0  0  0  0  0  0  0  0  0  0  0  0
    4.4059   -9.6588   -0.6162 C   0  0  0  0  0  0  0  0  0  0  0  0
   -0.0570  -14.8565    0.0661 C   0  0  0  0  0  0  0  0  0  0  0  0
    4.9673  -16.0303    0.6601 C   0  0  0  0  0  0  0  0  0  0  0  0
   11.2122   -7.7586    0.1329 C   0  0  0  0  0  0  0  0  0  0  0  0
    9.8324   -9.6936   -0.2385 C   0  0  0  0  0  0  0  0  0  0  0  0
    0.6130  -16.0768   -0.4071 C   0  0  0  0  0  0  0  0  0  0  0  0
   -1.3614  -14.8877    0.3356 C   0  0  0  0  0  0  0  0  0  0  0  0
   12.3831   -8.6420    0.0857 C   0  0  0  0  0  0  0  0  0  0  0  0
   10.8917  -10.4979   -0.2836 C   0  0  0  0  0  0  0  0  0  0  0  0
   -0.0802  -17.2044   -0.5590 C   0  0  0  0  0  0  0  0  0  0  0  0
   -2.1247  -16.1241    0.1601 C   0  0  0  0  0  0  0  0  0  0  0  0
   12.2295   -9.9485   -0.1103 C   0  0  0  0  0  0  0  0  0  0  0  0
   -1.5145  -17.2291   -0.2631 C   0  0  0  0  0  0  0  0  0  0  0  0
  2  1  1  0
  3  1  2  0
  4  2  1  0
  5  3  1  0
  6  1  1  0
  7 10  1  0
  8  7  1  0
  9  8  1  0
 10 18  1  0
 11  2  1  0
 12  9  1  0
 13  6  1  0
 14  6  1  0
 15  7  2  0
  8 16  1  1
 17 12  2  0
 18 19  1  0
 19 14  1  0
 20 13  1  0
 21 16  1  0
 22 12  1  0
 23 11  2  0
 24 11  1  0
 25 21  2  0
 26 21  1  0
 27 23  1  0
 28 24  2  0
 29 25  1  0
 30 26  2  0
 31 28  1  0
 32 30  1  0
  4  5  2  0
 20 18  1  0
 27 31  2  0
 29 32  2  0
M  END
>  <Name>  (16) 
Molecule

>  <IDNUMBER>  (16) 
ASN 10814040

>  <Num_H_Acceptors_Lipinski>  (16) 
9

>  <Num_H_Donors_Lipinski>  (16) 
2

>  <Molecular_Weight>  (16) 
433.50618

>  <ALogP>  (16) 
1.685

>  <Num_RotatableBonds>  (16) 
7

>  <Molecular_PolarSurfaceArea>  (16) 
105.04

>  <Num_H_Acceptors>  (16) 
6

>  <Num_H_Donors>  (16) 
2

>  <ADMET_Solubility>  (16) 
-3.272

>  <ADMET_Solubility_Level>  (16) 
3

>  <ADMET_Unknown_AlogP98>  (16) 
0

>  <ADMET_BBB>  (16) 
-1.151

>  <ADMET_BBB_Level>  (16) 
3

>  <ADMET_EXT_CYP2D6>  (16) 
-10.7014339702985

>  <ADMET_EXT_CYP2D6#Prediction>  (16) 
false

>  <ADMET_EXT_CYP2D6_Applicability>  (16) 
All properties and OPS components are within expected ranges.
Unknown FCFP_2 feature: -1410079687: [*]N([*])[c]1:n:[*]:[*]:n:1[*]

>  <ADMET_EXT_CYP2D6_Applicability#MD>  (16) 
12.1161935250411

>  <ADMET_EXT_CYP2D6_Applicability#MDpvalue>  (16) 
0.00229031815471358

>  <ADMET_EXT_Hepatotoxic>  (16) 
-6.66390044488393

>  <ADMET_EXT_Hepatotoxic#Prediction>  (16) 
false

>  <ADMET_EXT_Hepatotoxic_Applicability>  (16) 
All properties and OPS components are within expected ranges.
Unknown FCFP_2 feature: 179977000: [*][c]1:[*]:[*]:n:n:1[c](:[*]):[*]
Unknown FCFP_2 feature: -1732563065: [*]:[cH]:[c](:[cH]:[*])n(:[*]):[*]

>  <ADMET_EXT_Hepatotoxic_Applicability#MD>  (16) 
15.9961713293653

>  <ADMET_EXT_Hepatotoxic_Applicability#MDpvalue>  (16) 
5.5072553946513e-14

>  <ADMET_Absorption_Level>  (16) 
0

>  <ADMET_EXT_PPB>  (16) 
-5.97940936100271

>  <ADMET_EXT_PPB#Prediction>  (16) 
false

>  <ADMET_EXT_PPB_Applicability>  (16) 
All properties and OPS components are within expected ranges.

>  <ADMET_EXT_PPB_Applicability#MD>  (16) 
15.7869589370786

>  <ADMET_EXT_PPB_Applicability#MDpvalue>  (16) 
6.38510483096011e-09

>  <ADMET_AlogP98>  (16) 
2.034

>  <ADMET_PSA_2D>  (16) 
102.705

$$$$
Molecule
     RDKit          3D

 22 23  0  0  0  0  0  0  0  0999 V2000
   -1.7081    1.1653   -0.0001 N   0  0  0  0  0  0  0  0  0  0  0  0
   -0.7427    2.2610   -0.0008 C   0  0  0  0  0  0  0  0  0  0  0  0
   -1.4461    3.3147   -0.0003 N   0  0  0  0  0  0  0  0  0  0  0  0
   -2.8962    1.7533    0.0007 N   0  0  0  0  0  0  0  0  0  0  0  0
   -2.7576    2.9660    0.0008 N   0  0  0  0  0  0  0  0  0  0  0  0
   -1.5921   -0.3040   -0.0014 C   0  0  0  0  0  0  0  0  0  0  0  0
    1.1029    2.3962   -0.0030 S   0  0  0  0  0  0  0  0  0  0  0  0
    3.5223    0.9568    0.0024 C   0  0  0  0  0  0  0  0  0  0  0  0
   -2.6998   -1.0630    0.0000 C   0  0  0  0  0  0  0  0  0  0  0  0
    4.1141    2.0420   -0.0026 O   0  0  0  0  0  0  0  0  0  0  0  0
    2.0431    0.8673    0.0077 C   0  0  0  0  0  0  0  0  0  0  0  0
    5.9238   -1.7733    0.0007 C   0  0  0  0  0  0  0  0  0  0  0  0
    4.1764   -0.2015    0.0034 N   0  0  0  0  0  0  0  0  0  0  0  0
    7.1887   -2.1840   -0.0008 C   0  0  0  0  0  0  0  0  0  0  0  0
   -0.3258   -0.9888   -0.0018 C   0  0  0  0  0  0  0  0  0  0  0  0
   -3.9740   -0.4833    0.0002 O   0  0  0  0  0  0  0  0  0  0  0  0
    5.5929   -0.3039   -0.0010 C   0  0  0  0  0  0  0  0  0  0  0  0
   -2.5866   -2.5390   -0.0012 C   0  0  0  0  0  0  0  0  0  0  0  0
   -4.9804   -1.5117    0.0003 C   0  0  0  0  0  0  0  0  0  0  0  0
   -0.2156   -2.3131   -0.0026 C   0  0  0  0  0  0  0  0  0  0  0  0
   -6.3806   -0.8825    0.0005 C   0  0  0  0  0  0  0  0  0  0  0  0
   -1.3984   -3.1292   -0.0016 C   0  0  0  0  0  0  0  0  0  0  0  0
  2  1  1  0
  3  2  2  0
  4  1  1  0
  5  4  2  0
  6  1  1  0
  7  2  1  0
  8 11  1  0
  9  6  2  0
 10  8  2  0
 11  7  1  0
 12 17  1  0
 13  8  1  0
 14 12  2  0
 15  6  1  0
 16  9  1  0
 17 13  1  0
 18  9  1  0
 19 16  1  0
 20 15  2  0
 21 19  1  0
 22 20  1  0
  5  3  1  0
 22 18  2  0
M  END
>  <Name>  (17) 
Molecule

>  <IDNUMBER>  (17) 
ASN 11848472

>  <Num_H_Acceptors_Lipinski>  (17) 
7

>  <Num_H_Donors_Lipinski>  (17) 
1

>  <Molecular_Weight>  (17) 
319.38208

>  <ALogP>  (17) 
1.809

>  <Num_RotatableBonds>  (17) 
8

>  <Molecular_PolarSurfaceArea>  (17) 
107.23

>  <Num_H_Acceptors>  (17) 
6

>  <Num_H_Donors>  (17) 
1

>  <ADMET_Solubility>  (17) 
-2.988

>  <ADMET_Solubility_Level>  (17) 
3

>  <ADMET_Unknown_AlogP98>  (17) 
0

>  <ADMET_BBB>  (17) 
-0.724

>  <ADMET_BBB_Level>  (17) 
3

>  <ADMET_EXT_CYP2D6>  (17) 
-6.79706275957687

>  <ADMET_EXT_CYP2D6#Prediction>  (17) 
false

>  <ADMET_EXT_CYP2D6_Applicability>  (17) 
All properties and OPS components are within expected ranges.
Unknown FCFP_2 feature: -1410079687: [*]N([*])[c]1:n:[*]:[*]:n:1[*]

>  <ADMET_EXT_CYP2D6_Applicability#MD>  (17) 
16.8204241120044

>  <ADMET_EXT_CYP2D6_Applicability#MDpvalue>  (17) 
1.65987228667129e-08

>  <ADMET_EXT_Hepatotoxic>  (17) 
-5.00203067747612

>  <ADMET_EXT_Hepatotoxic#Prediction>  (17) 
false

>  <ADMET_EXT_Hepatotoxic_Applicability>  (17) 
All properties and OPS components are within expected ranges.
Unknown FCFP_2 feature: 179977000: [*][c]1:[*]:[*]:n:n:1[c](:[*]):[*]
Unknown FCFP_2 feature: -1732563065: [*]:[cH]:[c](:[cH]:[*])n(:[*]):[*]

>  <ADMET_EXT_Hepatotoxic_Applicability#MD>  (17) 
16.8379181370702

>  <ADMET_EXT_Hepatotoxic_Applicability#MDpvalue>  (17) 
1.96933085428223e-16

>  <ADMET_Absorption_Level>  (17) 
0

>  <ADMET_EXT_PPB>  (17) 
-1.95967245051117

>  <ADMET_EXT_PPB#Prediction>  (17) 
true

>  <ADMET_EXT_PPB_Applicability>  (17) 
All properties and OPS components are within expected ranges.

>  <ADMET_EXT_PPB_Applicability#MD>  (17) 
12.5157577435075

>  <ADMET_EXT_PPB_Applicability#MDpvalue>  (17) 
0.0255863918177526

>  <ADMET_AlogP98>  (17) 
2.158

>  <ADMET_PSA_2D>  (17) 
78.172

$$$$
Molecule
     RDKit          3D

 27 29  0  0  0  0  0  0  0  0999 V2000
   -2.7312   -0.7452   -0.8789 S   0  0  0  0  0  0  0  0  0  0  0  0
   -3.8474   -1.5778    0.1618 N   0  0  0  0  0  0  0  0  0  0  0  0
   -5.1950   -1.2186    0.1987 C   0  0  0  0  0  0  0  0  0  0  0  0
   -1.1508   -0.1536   -0.2503 C   0  0  0  0  0  0  0  0  0  0  0  0
   -3.6612   -2.9643    0.5615 C   0  0  0  0  0  0  0  0  0  0  0  0
   -3.4273    0.4518   -1.4903 O   0  0  0  0  0  0  0  0  0  0  0  0
   -2.4035   -1.7410   -1.9733 O   0  0  0  0  0  0  0  0  0  0  0  0
    5.0434    1.6077    0.2028 C   0  0  0  0  0  0  0  0  0  0  0  0
   -5.9514   -2.2484    0.5112 C   0  0  0  0  0  0  0  0  0  0  0  0
   -5.1553   -3.4926    0.7537 C   0  0  0  0  0  0  0  0  0  0  0  0
    4.9234    2.8383    0.1807 O   0  0  0  0  0  0  0  0  0  0  0  0
   -1.0266    1.1452    0.0187 C   0  0  0  0  0  0  0  0  0  0  0  0
    0.0559   -1.0097   -0.2568 C   0  0  0  0  0  0  0  0  0  0  0  0
    6.2646    1.0703    0.1160 N   0  0  0  0  0  0  0  0  0  0  0  0
    2.6510    1.6063    0.4617 O   0  0  0  0  0  0  0  0  0  0  0  0
    3.7954    0.7339    0.3133 C   0  0  0  0  0  0  0  0  0  0  0  0
    1.3894    0.9704    0.2750 C   0  0  0  0  0  0  0  0  0  0  0  0
    0.2905    1.7241    0.3148 C   0  0  0  0  0  0  0  0  0  0  0  0
    1.2624   -0.4765   -0.0143 C   0  0  0  0  0  0  0  0  0  0  0  0
   -5.7811    0.0816   -0.0979 C   0  0  0  0  0  0  0  0  0  0  0  0
    9.8564    2.0104   -0.0555 O   0  0  0  0  0  0  0  0  0  0  0  0
   -7.4057   -2.1358    0.5637 C   0  0  0  0  0  0  0  0  0  0  0  0
    7.4192    1.9411    0.0045 C   0  0  0  0  0  0  0  0  0  0  0  0
    8.7308    1.1218    0.0424 C   0  0  0  0  0  0  0  0  0  0  0  0
   11.0753    1.2594   -0.0047 C   0  0  0  0  0  0  0  0  0  0  0  0
   -7.1087    0.2122   -0.0552 C   0  0  0  0  0  0  0  0  0  0  0  0
   -7.9635   -0.9539    0.2890 C   0  0  0  0  0  0  0  0  0  0  0  0
  2  1  1  0
  3  2  1  0
  4  1  1  0
  5  2  1  0
  6  1  2  0
  7  1  2  0
  8 16  1  0
  9  3  2  0
 10  5  1  0
 11  8  2  0
 12  4  2  0
 13  4  1  0
 14  8  1  0
 15 17  1  0
 16 15  1  0
 17 19  1  0
 18 12  1  0
 19 13  2  0
 20  3  1  0
 21 24  1  0
 22  9  1  0
 23 14  1  0
 24 23  1  0
 25 21  1  0
 26 20  2  0
 27 26  1  0
 17 18  2  0
 10  9  1  0
 27 22  2  0
M  END
>  <Name>  (18) 
Molecule

>  <IDNUMBER>  (18) 
ASN 12634179

>  <Num_H_Acceptors_Lipinski>  (18) 
7

>  <Num_H_Donors_Lipinski>  (18) 
1

>  <Molecular_Weight>  (18) 
390.45338

>  <ALogP>  (18) 
1.51

>  <Num_RotatableBonds>  (18) 
8

>  <Molecular_PolarSurfaceArea>  (18) 
93.32

>  <Num_H_Acceptors>  (18) 
5

>  <Num_H_Donors>  (18) 
1

>  <ADMET_Solubility>  (18) 
-2.606

>  <ADMET_Solubility_Level>  (18) 
3

>  <ADMET_Unknown_AlogP98>  (18) 
0

>  <ADMET_BBB>  (18) 
-1.047

>  <ADMET_BBB_Level>  (18) 
3

>  <ADMET_EXT_CYP2D6>  (18) 
-15.1457126058017

>  <ADMET_EXT_CYP2D6#Prediction>  (18) 
false

>  <ADMET_EXT_CYP2D6_Applicability>  (18) 
OPS PC6 out of range. Value: 4.1357. Training min, max, SD, explained variance: -5.674, 3.9834, 1.993, 0.0519.
Unknown FCFP_2 feature: -1096278874: [*]OS(=O)(=O)[c](:[*]):[*]

>  <ADMET_EXT_CYP2D6_Applicability#MD>  (18) 
15.9055752893981

>  <ADMET_EXT_CYP2D6_Applicability#MDpvalue>  (18) 
1.89186262625676e-07

>  <ADMET_EXT_Hepatotoxic>  (18) 
-6.67491097578306

>  <ADMET_EXT_Hepatotoxic#Prediction>  (18) 
false

>  <ADMET_EXT_Hepatotoxic_Applicability>  (18) 
All properties and OPS components are within expected ranges.
Unknown FCFP_2 feature: -1096278874: [*]OS(=O)(=O)[c](:[*]):[*]

>  <ADMET_EXT_Hepatotoxic_Applicability#MD>  (18) 
13.9708351250812

>  <ADMET_EXT_Hepatotoxic_Applicability#MDpvalue>  (18) 
1.16318376510113e-08

>  <ADMET_Absorption_Level>  (18) 
0

>  <ADMET_EXT_PPB>  (18) 
1.00700883940832

>  <ADMET_EXT_PPB#Prediction>  (18) 
true

>  <ADMET_EXT_PPB_Applicability>  (18) 
All properties and OPS components are within expected ranges.

>  <ADMET_EXT_PPB_Applicability#MD>  (18) 
14.5311888920028

>  <ADMET_EXT_PPB_Applicability#MDpvalue>  (18) 
8.09579627641075e-06

>  <ADMET_AlogP98>  (18) 
1.51

>  <ADMET_PSA_2D>  (18) 
85.925

$$$$
Molecule
     RDKit          3D

 24 25  0  0  0  0  0  0  0  0999 V2000
   -2.4135   -1.7203    0.1612 S   0  0  0  0  0  0  0  0  0  0  0  0
   -2.4066    0.0792    0.1152 N   0  0  0  0  0  0  0  0  0  0  0  0
   -1.0575    0.7115    0.2404 C   0  0  0  0  0  0  0  0  0  0  0  0
   -3.7161    0.9437    0.0108 C   0  0  0  0  0  0  0  0  0  0  0  0
    0.1900   -0.1086   -0.0875 C   0  0  0  0  0  0  0  0  0  0  0  0
   -1.4163   -2.1541    1.2195 O   0  0  0  0  0  0  0  0  0  0  0  0
   -1.9395   -2.2344   -1.1862 O   0  0  0  0  0  0  0  0  0  0  0  0
    5.0438   -0.1204   -0.3035 N   0  0  0  0  0  0  0  0  0  0  0  0
   -3.8262    2.3182   -0.0530 C   0  0  0  0  0  0  0  0  0  0  0  0
    0.1324   -1.2813   -0.4623 O   0  0  0  0  0  0  0  0  0  0  0  0
    7.5719   -1.2735    0.3605 O   0  0  0  0  0  0  0  0  0  0  0  0
    1.3814    0.4711    0.0237 N   0  0  0  0  0  0  0  0  0  0  0  0
   -3.9526   -2.6147    0.5689 C   0  0  0  0  0  0  0  0  0  0  0  0
    2.5722   -0.2633   -0.2915 C   0  0  0  0  0  0  0  0  0  0  0  0
    3.8059    0.5941    0.0570 C   0  0  0  0  0  0  0  0  0  0  0  0
   -4.9973    0.2131   -0.0468 C   0  0  0  0  0  0  0  0  0  0  0  0
    5.1366   -1.3935    0.4353 C   0  0  0  0  0  0  0  0  0  0  0  0
    6.2063    0.7202    0.0263 C   0  0  0  0  0  0  0  0  0  0  0  0
    6.4461   -2.1101    0.0375 C   0  0  0  0  0  0  0  0  0  0  0  0
    7.4987   -0.0305   -0.3610 C   0  0  0  0  0  0  0  0  0  0  0  0
   -2.6998    3.3408   -0.0260 C   0  0  0  0  0  0  0  0  0  0  0  0
   -5.1616    2.9421   -0.1399 C   0  0  0  0  0  0  0  0  0  0  0  0
   -6.1850    0.8024   -0.1241 C   0  0  0  0  0  0  0  0  0  0  0  0
   -6.2739    2.2259   -0.1751 C   0  0  0  0  0  0  0  0  0  0  0  0
  2  1  1  0
  3  2  1  0
  4  2  1  0
  5  3  1  0
  6  1  2  0
  7  1  2  0
  8 15  1  0
  9  4  2  0
 10  5  2  0
 11 19  1  0
 12  5  1  0
 13  1  1  0
 14 12  1  0
 15 14  1  0
 16  4  1  0
 17  8  1  0
 18  8  1  0
 19 17  1  0
 20 18  1  0
 21  9  1  0
 22  9  1  0
 23 16  2  0
 24 23  1  0
 24 22  2  0
 11 20  1  0
M  END
>  <Name>  (19) 
Molecule

>  <IDNUMBER>  (19) 
ASN 12668423

>  <Num_H_Acceptors_Lipinski>  (19) 
7

>  <Num_H_Donors_Lipinski>  (19) 
1

>  <Molecular_Weight>  (19) 
355.4524

>  <ALogP>  (19) 
0.319

>  <Num_RotatableBonds>  (19) 
7

>  <Molecular_PolarSurfaceArea>  (19) 
87.33

>  <Num_H_Acceptors>  (19) 
5

>  <Num_H_Donors>  (19) 
1

>  <ADMET_Solubility>  (19) 
-1.546

>  <ADMET_Solubility_Level>  (19) 
4

>  <ADMET_Unknown_AlogP98>  (19) 
0

>  <ADMET_BBB>  (19) 
-1.327

>  <ADMET_BBB_Level>  (19) 
3

>  <ADMET_EXT_CYP2D6>  (19) 
-10.9746829290415

>  <ADMET_EXT_CYP2D6#Prediction>  (19) 
false

>  <ADMET_EXT_CYP2D6_Applicability>  (19) 
All properties and OPS components are within expected ranges.
Unknown FCFP_2 feature: 1018882710: [*]CS(=O)(=O)O[*]

>  <ADMET_EXT_CYP2D6_Applicability#MD>  (19) 
15.5597319772699

>  <ADMET_EXT_CYP2D6_Applicability#MDpvalue>  (19) 
4.71467551986645e-07

>  <ADMET_EXT_Hepatotoxic>  (19) 
-9.41076739725775

>  <ADMET_EXT_Hepatotoxic#Prediction>  (19) 
false

>  <ADMET_EXT_Hepatotoxic_Applicability>  (19) 
All properties and OPS components are within expected ranges.
Unknown FCFP_2 feature: 1018882710: [*]CS(=O)(=O)O[*]

>  <ADMET_EXT_Hepatotoxic_Applicability#MD>  (19) 
11.6387096696063

>  <ADMET_EXT_Hepatotoxic_Applicability#MDpvalue>  (19) 
0.000670095234262364

>  <ADMET_Absorption_Level>  (19) 
0

>  <ADMET_EXT_PPB>  (19) 
-8.81669866927104

>  <ADMET_EXT_PPB#Prediction>  (19) 
false

>  <ADMET_EXT_PPB_Applicability>  (19) 
All properties and OPS components are within expected ranges.

>  <ADMET_EXT_PPB_Applicability#MD>  (19) 
13.442665305388

>  <ADMET_EXT_PPB_Applicability#MDpvalue>  (19) 
0.00110364596960722

>  <ADMET_AlogP98>  (19) 
0.319

>  <ADMET_PSA_2D>  (19) 
80.347

$$$$
Molecule
     RDKit          3D

 27 28  0  0  0  0  0  0  0  0999 V2000
   -1.8738    1.4170   -0.9366 S   0  0  0  0  0  0  0  0  0  0  0  0
   -2.0228    0.1486    0.3328 N   0  0  0  0  0  0  0  0  0  0  0  0
   -0.8052   -0.7814    0.2859 C   0  0  0  0  0  0  0  0  0  0  0  0
    0.5887   -0.1555    0.3257 C   0  0  0  0  0  0  0  0  0  0  0  0
   -0.9938    0.9094   -2.0609 O   0  0  0  0  0  0  0  0  0  0  0  0
   -3.2079    1.7992   -1.5434 O   0  0  0  0  0  0  0  0  0  0  0  0
   -6.1163    1.6908    0.5070 C   0  0  0  0  0  0  0  0  0  0  0  0
    6.6785   -1.2163    0.3594 N   0  0  0  0  0  0  0  0  0  0  0  0
   -3.1826   -0.7876    0.0966 C   0  0  0  0  0  0  0  0  0  0  0  0
   -7.1661    0.9424    0.1707 C   0  0  0  0  0  0  0  0  0  0  0  0
   -4.7714    1.1089    0.5132 C   0  0  0  0  0  0  0  0  0  0  0  0
   -4.5837   -0.1628    0.1624 C   0  0  0  0  0  0  0  0  0  0  0  0
    0.7414    1.0493    0.5111 O   0  0  0  0  0  0  0  0  0  0  0  0
    9.2052   -2.3760   -0.3279 O   0  0  0  0  0  0  0  0  0  0  0  0
   -6.9741   -0.4630   -0.1869 C   0  0  0  0  0  0  0  0  0  0  0  0
    1.6740   -0.9064    0.1052 N   0  0  0  0  0  0  0  0  0  0  0  0
   -1.1898    2.9546   -0.2332 C   0  0  0  0  0  0  0  0  0  0  0  0
   -6.3385    3.3552    0.9084 Cl  0  0  0  0  0  0  0  0  0  0  0  0
   -5.7491   -0.9886   -0.1930 C   0  0  0  0  0  0  0  0  0  0  0  0
   -8.7486    1.6386    0.1415 Cl  0  0  0  0  0  0  0  0  0  0  0  0
    5.4660   -0.4263    0.0391 C   0  0  0  0  0  0  0  0  0  0  0  0
    4.1523   -1.2321    0.2498 C   0  0  0  0  0  0  0  0  0  0  0  0
    7.8709   -0.3811    0.1102 C   0  0  0  0  0  0  0  0  0  0  0  0
    6.7625   -2.4360   -0.4630 C   0  0  0  0  0  0  0  0  0  0  0  0
    2.9662   -0.2531    0.0565 C   0  0  0  0  0  0  0  0  0  0  0  0
    9.1426   -1.1807    0.4690 C   0  0  0  0  0  0  0  0  0  0  0  0
    8.0527   -3.2054   -0.0824 C   0  0  0  0  0  0  0  0  0  0  0  0
  2  1  1  0
  3  2  1  0
  4  3  1  0
  5  1  2  0
  6  1  2  0
  7 11  2  0
  8 21  1  0
  9  2  1  0
 10 15  2  0
 11 12  1  0
 12  9  1  0
 13  4  2  0
 14 26  1  0
 15 19  1  0
 16  4  1  0
 17  1  1  0
 18  7  1  0
 19 12  2  0
 20 10  1  0
 21 22  1  0
 22 25  1  0
 23  8  1  0
 24  8  1  0
 25 16  1  0
 26 23  1  0
 27 24  1  0
 10  7  1  0
 14 27  1  0
M  END
>  <Name>  (20) 
Molecule

>  <IDNUMBER>  (20) 
ASN 12923162

>  <Num_H_Acceptors_Lipinski>  (20) 
7

>  <Num_H_Donors_Lipinski>  (20) 
1

>  <Molecular_Weight>  (20) 
438.3691

>  <ALogP>  (20) 
1.231

>  <Num_RotatableBonds>  (20) 
9

>  <Molecular_PolarSurfaceArea>  (20) 
87.33

>  <Num_H_Acceptors>  (20) 
5

>  <Num_H_Donors>  (20) 
1

>  <ADMET_Solubility>  (20) 
-2.369

>  <ADMET_Solubility_Level>  (20) 
3

>  <ADMET_Unknown_AlogP98>  (20) 
0

>  <ADMET_BBB>  (20) 
-1.045

>  <ADMET_BBB_Level>  (20) 
3

>  <ADMET_EXT_CYP2D6>  (20) 
-7.40840989470808

>  <ADMET_EXT_CYP2D6#Prediction>  (20) 
false

>  <ADMET_EXT_CYP2D6_Applicability>  (20) 
All properties and OPS components are within expected ranges.
Unknown FCFP_2 feature: 1704082462: [*]N([*])S(=O)(=O)C

>  <ADMET_EXT_CYP2D6_Applicability#MD>  (20) 
9.68018144160614

>  <ADMET_EXT_CYP2D6_Applicability#MDpvalue>  (20) 
0.181661656051768

>  <ADMET_EXT_Hepatotoxic>  (20) 
-7.4275660008898

>  <ADMET_EXT_Hepatotoxic#Prediction>  (20) 
false

>  <ADMET_EXT_Hepatotoxic_Applicability>  (20) 
All properties and OPS components are within expected ranges.
Unknown FCFP_2 feature: 1704082462: [*]N([*])S(=O)(=O)C

>  <ADMET_EXT_Hepatotoxic_Applicability#MD>  (20) 
14.5498858542548

>  <ADMET_EXT_Hepatotoxic_Applicability#MDpvalue>  (20) 
4.3358893703677e-10

>  <ADMET_Absorption_Level>  (20) 
0

>  <ADMET_EXT_PPB>  (20) 
-1.56746004507071

>  <ADMET_EXT_PPB#Prediction>  (20) 
true

>  <ADMET_EXT_PPB_Applicability>  (20) 
All properties and OPS components are within expected ranges.
Unknown FCFP_2 feature: 1704082462: [*]N([*])S(=O)(=O)C

>  <ADMET_EXT_PPB_Applicability#MD>  (20) 
13.1004446679515

>  <ADMET_EXT_PPB_Applicability#MDpvalue>  (20) 
0.00395620727468023

>  <ADMET_AlogP98>  (20) 
1.231

>  <ADMET_PSA_2D>  (20) 
80.347

$$$$
Molecule
     RDKit          3D

 26 27  0  0  0  0  0  0  0  0999 V2000
   -2.3746   -2.2626    0.1488 S   0  0  0  0  0  0  0  0  0  0  0  0
   -2.4987   -0.4917    0.1266 N   0  0  0  0  0  0  0  0  0  0  0  0
   -1.2629    0.3370    0.2157 C   0  0  0  0  0  0  0  0  0  0  0  0
   -3.7617    0.2481    0.0542 C   0  0  0  0  0  0  0  0  0  0  0  0
    0.0577   -0.3710   -0.1311 C   0  0  0  0  0  0  0  0  0  0  0  0
   -5.0708   -0.4221   -0.0403 C   0  0  0  0  0  0  0  0  0  0  0  0
   -2.0569   -2.7408   -1.2561 O   0  0  0  0  0  0  0  0  0  0  0  0
   -1.2338   -2.6579    1.0668 O   0  0  0  0  0  0  0  0  0  0  0  0
   -6.2067    0.2869   -0.0865 C   0  0  0  0  0  0  0  0  0  0  0  0
    6.2084    0.2934    0.2972 N   0  0  0  0  0  0  0  0  0  0  0  0
   -6.1512    1.7424   -0.0518 C   0  0  0  0  0  0  0  0  0  0  0  0
   -3.7312    1.5746    0.0818 C   0  0  0  0  0  0  0  0  0  0  0  0
    0.0697   -1.5045   -0.6141 O   0  0  0  0  0  0  0  0  0  0  0  0
   -4.9790    2.3609    0.0245 C   0  0  0  0  0  0  0  0  0  0  0  0
    8.7636    1.4588   -0.2761 O   0  0  0  0  0  0  0  0  0  0  0  0
    1.2258    0.2440    0.0874 N   0  0  0  0  0  0  0  0  0  0  0  0
   -3.8272   -3.1837    0.7539 C   0  0  0  0  0  0  0  0  0  0  0  0
    4.9848   -0.4309   -0.1243 C   0  0  0  0  0  0  0  0  0  0  0  0
    3.6990    0.3766    0.2070 C   0  0  0  0  0  0  0  0  0  0  0  0
    6.3265    1.5720   -0.4299 C   0  0  0  0  0  0  0  0  0  0  0  0
    7.3918   -0.5392    0.0050 C   0  0  0  0  0  0  0  0  0  0  0  0
   -7.5233   -0.4294   -0.1711 C   0  0  0  0  0  0  0  0  0  0  0  0
    2.4591   -0.4441   -0.2374 C   0  0  0  0  0  0  0  0  0  0  0  0
    7.6239    2.2902    0.0130 C   0  0  0  0  0  0  0  0  0  0  0  0
    8.6696    0.2145    0.4395 C   0  0  0  0  0  0  0  0  0  0  0  0
   -7.4267    2.5444   -0.1046 C   0  0  0  0  0  0  0  0  0  0  0  0
  2  1  1  0
  3  2  1  0
  4  2  1  0
  5  3  1  0
  6  4  2  0
  7  1  2  0
  8  1  2  0
  9  6  1  0
 10 18  1  0
 11 14  1  0
 12  4  1  0
 13  5  2  0
 14 12  2  0
 15 24  1  0
 16  5  1  0
 17  1  1  0
 18 19  1  0
 19 23  1  0
 20 10  1  0
 21 10  1  0
 22  9  1  0
 23 16  1  0
 24 20  1  0
 25 21  1  0
 26 11  1  0
 11  9  2  0
 15 25  1  0
M  END
>  <Name>  (21) 
Molecule

>  <IDNUMBER>  (21) 
ASN 12925917

>  <Num_H_Acceptors_Lipinski>  (21) 
7

>  <Num_H_Donors_Lipinski>  (21) 
1

>  <Molecular_Weight>  (21) 
383.50556

>  <ALogP>  (21) 
0.867

>  <Num_RotatableBonds>  (21) 
8

>  <Molecular_PolarSurfaceArea>  (21) 
87.33

>  <Num_H_Acceptors>  (21) 
5

>  <Num_H_Donors>  (21) 
1

>  <ADMET_Solubility>  (21) 
-1.935

>  <ADMET_Solubility_Level>  (21) 
4

>  <ADMET_Unknown_AlogP98>  (21) 
0

>  <ADMET_BBB>  (21) 
-1.157

>  <ADMET_BBB_Level>  (21) 
3

>  <ADMET_EXT_CYP2D6>  (21) 
-10.8679741393713

>  <ADMET_EXT_CYP2D6#Prediction>  (21) 
false

>  <ADMET_EXT_CYP2D6_Applicability>  (21) 
All properties and OPS components are within expected ranges.
Unknown FCFP_2 feature: 1018882710: [*]CS(=O)(=O)O[*]

>  <ADMET_EXT_CYP2D6_Applicability#MD>  (21) 
13.7480794314417

>  <ADMET_EXT_CYP2D6_Applicability#MDpvalue>  (21) 
4.95080774467665e-05

>  <ADMET_EXT_Hepatotoxic>  (21) 
-8.94761627874664

>  <ADMET_EXT_Hepatotoxic#Prediction>  (21) 
false

>  <ADMET_EXT_Hepatotoxic_Applicability>  (21) 
All properties and OPS components are within expected ranges.
Unknown FCFP_2 feature: 1018882710: [*]CS(=O)(=O)O[*]

>  <ADMET_EXT_Hepatotoxic_Applicability#MD>  (21) 
10.8853084224445

>  <ADMET_EXT_Hepatotoxic_Applicability#MDpvalue>  (21) 
0.00886890303879432

>  <ADMET_Absorption_Level>  (21) 
0

>  <ADMET_EXT_PPB>  (21) 
-4.20218880118305

>  <ADMET_EXT_PPB#Prediction>  (21) 
false

>  <ADMET_EXT_PPB_Applicability>  (21) 
All properties and OPS components are within expected ranges.

>  <ADMET_EXT_PPB_Applicability#MD>  (21) 
12.9716361054155

>  <ADMET_EXT_PPB_Applicability#MDpvalue>  (21) 
0.0061779462505757

>  <ADMET_AlogP98>  (21) 
0.868

>  <ADMET_PSA_2D>  (21) 
80.347

$$$$
Molecule
     RDKit          3D

 24 25  0  0  0  0  0  0  0  0999 V2000
   -2.2089   -1.8024   -0.1518 S   0  0  0  0  0  0  0  0  0  0  0  0
   -2.2815   -0.0246   -0.0162 N   0  0  0  0  0  0  0  0  0  0  0  0
   -1.0147    0.7730    0.0512 C   0  0  0  0  0  0  0  0  0  0  0  0
    0.3149   -0.0077    0.0332 C   0  0  0  0  0  0  0  0  0  0  0  0
   -1.6530   -2.3506    1.1494 O   0  0  0  0  0  0  0  0  0  0  0  0
   -1.2614   -2.1628   -1.2809 O   0  0  0  0  0  0  0  0  0  0  0  0
   -3.5212    0.7589    0.0245 C   0  0  0  0  0  0  0  0  0  0  0  0
    5.1718   -0.0413   -0.2516 N   0  0  0  0  0  0  0  0  0  0  0  0
    0.3485   -1.2348    0.1011 O   0  0  0  0  0  0  0  0  0  0  0  0
    7.6877   -1.2618    0.3539 O   0  0  0  0  0  0  0  0  0  0  0  0
    1.4754    0.6411   -0.0777 N   0  0  0  0  0  0  0  0  0  0  0  0
   -4.8608    0.1470    0.0489 C   0  0  0  0  0  0  0  0  0  0  0  0
   -3.4397    2.0868    0.0386 C   0  0  0  0  0  0  0  0  0  0  0  0
   -3.7512   -2.7015   -0.5166 C   0  0  0  0  0  0  0  0  0  0  0  0
   -5.8580    2.3428    0.0849 C   0  0  0  0  0  0  0  0  0  0  0  0
   -5.9623    0.8950    0.0763 C   0  0  0  0  0  0  0  0  0  0  0  0
   -4.6564    2.9187    0.0695 C   0  0  0  0  0  0  0  0  0  0  0  0
   -6.9690    3.0953    0.1091 F   0  0  0  0  0  0  0  0  0  0  0  0
    2.6943   -0.1355   -0.1677 C   0  0  0  0  0  0  0  0  0  0  0  0
    3.9482    0.7321    0.0878 C   0  0  0  0  0  0  0  0  0  0  0  0
    5.2494   -1.2976    0.5180 C   0  0  0  0  0  0  0  0  0  0  0  0
    6.3717    0.7711    0.0165 C   0  0  0  0  0  0  0  0  0  0  0  0
    6.5237   -2.0669    0.0905 C   0  0  0  0  0  0  0  0  0  0  0  0
    7.6290   -0.0323   -0.3920 C   0  0  0  0  0  0  0  0  0  0  0  0
  2  1  1  0
  3  2  1  0
  4  3  1  0
  5  1  2  0
  6  1  2  0
  7  2  1  0
  8 20  1  0
  9  4  2  0
 10 23  1  0
 11  4  1  0
 12  7  2  0
 13  7  1  0
 14  1  1  0
 15 16  2  0
 16 12  1  0
 17 13  2  0
 18 15  1  0
 19 11  1  0
 20 19  1  0
 21  8  1  0
 22  8  1  0
 23 21  1  0
 24 22  1  0
 15 17  1  0
 10 24  1  0
M  END
>  <Name>  (22) 
Molecule

>  <IDNUMBER>  (22) 
ASN 13048292

>  <Num_H_Acceptors_Lipinski>  (22) 
7

>  <Num_H_Donors_Lipinski>  (22) 
1

>  <Molecular_Weight>  (22) 
359.41628

>  <ALogP>  (22) 
0.038

>  <Num_RotatableBonds>  (22) 
7

>  <Molecular_PolarSurfaceArea>  (22) 
87.33

>  <Num_H_Acceptors>  (22) 
5

>  <Num_H_Donors>  (22) 
1

>  <ADMET_Solubility>  (22) 
-1.369

>  <ADMET_Solubility_Level>  (22) 
4

>  <ADMET_Unknown_AlogP98>  (22) 
0

>  <ADMET_BBB>  (22) 
-1.414

>  <ADMET_BBB_Level>  (22) 
3

>  <ADMET_EXT_CYP2D6>  (22) 
-8.86143529661225

>  <ADMET_EXT_CYP2D6#Prediction>  (22) 
false

>  <ADMET_EXT_CYP2D6_Applicability>  (22) 
OPS PC11 out of range. Value: 5.1511. Training min, max, SD, explained variance: -4.1777, 4.5225, 1.412, 0.0260.
Unknown FCFP_2 feature: 1018882710: [*]CS(=O)(=O)O[*]

>  <ADMET_EXT_CYP2D6_Applicability#MD>  (22) 
11.1499261800974

>  <ADMET_EXT_CYP2D6_Applicability#MDpvalue>  (22) 
0.016689186444413

>  <ADMET_EXT_Hepatotoxic>  (22) 
-5.3013557882455

>  <ADMET_EXT_Hepatotoxic#Prediction>  (22) 
false

>  <ADMET_EXT_Hepatotoxic_Applicability>  (22) 
All properties and OPS components are within expected ranges.
Unknown FCFP_2 feature: 1018882710: [*]CS(=O)(=O)O[*]

>  <ADMET_EXT_Hepatotoxic_Applicability#MD>  (22) 
11.2620509280468

>  <ADMET_EXT_Hepatotoxic_Applicability#MDpvalue>  (22) 
0.00260565699822866

>  <ADMET_Absorption_Level>  (22) 
0

>  <ADMET_EXT_PPB>  (22) 
-7.11283591618623

>  <ADMET_EXT_PPB#Prediction>  (22) 
false

>  <ADMET_EXT_PPB_Applicability>  (22) 
All properties and OPS components are within expected ranges.

>  <ADMET_EXT_PPB_Applicability#MD>  (22) 
12.3366325397859

>  <ADMET_EXT_PPB_Applicability#MDpvalue>  (22) 
0.0417949995179035

>  <ADMET_AlogP98>  (22) 
0.038

>  <ADMET_PSA_2D>  (22) 
80.347

$$$$
Molecule
     RDKit          3D

 25 26  0  0  0  0  0  0  0  0999 V2000
   -2.6406   -2.3116    0.1331 S   0  0  0  0  0  0  0  0  0  0  0  0
   -2.7770   -0.5357    0.0070 N   0  0  0  0  0  0  0  0  0  0  0  0
   -1.5390    0.3061   -0.0674 C   0  0  0  0  0  0  0  0  0  0  0  0
   -0.1805   -0.4228   -0.0384 C   0  0  0  0  0  0  0  0  0  0  0  0
   -2.0063   -2.8256   -1.1460 O   0  0  0  0  0  0  0  0  0  0  0  0
   -1.7270   -2.6410    1.2990 O   0  0  0  0  0  0  0  0  0  0  0  0
   -4.0427    0.2060   -0.0234 C   0  0  0  0  0  0  0  0  0  0  0  0
    5.9427    0.3120   -0.3421 N   0  0  0  0  0  0  0  0  0  0  0  0
   -0.1025   -1.6500   -0.0474 O   0  0  0  0  0  0  0  0  0  0  0  0
    8.4925    1.4402    0.3073 O   0  0  0  0  0  0  0  0  0  0  0  0
   -4.0036    1.5364   -0.0584 C   0  0  0  0  0  0  0  0  0  0  0  0
   -5.3619   -0.4468   -0.0149 C   0  0  0  0  0  0  0  0  0  0  0  0
    0.9594    0.2714    0.0088 N   0  0  0  0  0  0  0  0  0  0  0  0
   -4.1591   -3.2794    0.4135 C   0  0  0  0  0  0  0  0  0  0  0  0
   -6.4289    1.7155   -0.0686 C   0  0  0  0  0  0  0  0  0  0  0  0
   -6.4869    0.2654   -0.0354 C   0  0  0  0  0  0  0  0  0  0  0  0
   -5.2467    2.3291   -0.0817 C   0  0  0  0  0  0  0  0  0  0  0  0
   -8.0395    2.7276   -0.0920 Br  0  0  0  0  0  0  0  0  0  0  0  0
    4.7129   -0.4290    0.0176 C   0  0  0  0  0  0  0  0  0  0  0  0
    3.4344    0.4229   -0.2128 C   0  0  0  0  0  0  0  0  0  0  0  0
    7.1163   -0.5405   -0.0670 C   0  0  0  0  0  0  0  0  0  0  0  0
    6.0557    1.5566    0.4389 C   0  0  0  0  0  0  0  0  0  0  0  0
    2.2039   -0.4649    0.0860 C   0  0  0  0  0  0  0  0  0  0  0  0
    8.4043    0.2212   -0.4515 C   0  0  0  0  0  0  0  0  0  0  0  0
    7.3592    2.2855    0.0339 C   0  0  0  0  0  0  0  0  0  0  0  0
  2  1  1  0
  3  2  1  0
  4  3  1  0
  5  1  2  0
  6  1  2  0
  7  2  1  0
  8 19  1  0
  9  4  2  0
 10 24  1  0
 11  7  2  0
 12  7  1  0
 13  4  1  0
 14  1  1  0
 15 16  1  0
 16 12  2  0
 17 11  1  0
 18 15  1  0
 19 20  1  0
 20 23  1  0
 21  8  1  0
 22  8  1  0
 23 13  1  0
 24 21  1  0
 25 22  1  0
 15 17  2  0
 10 25  1  0
M  END
>  <Name>  (23) 
Molecule

>  <IDNUMBER>  (23) 
ASN 13049685

>  <Num_H_Acceptors_Lipinski>  (23) 
7

>  <Num_H_Donors_Lipinski>  (23) 
1

>  <Molecular_Weight>  (23) 
434.34846

>  <ALogP>  (23) 
0.644

>  <Num_RotatableBonds>  (23) 
8

>  <Molecular_PolarSurfaceArea>  (23) 
87.33

>  <Num_H_Acceptors>  (23) 
5

>  <Num_H_Donors>  (23) 
1

>  <ADMET_Solubility>  (23) 
-1.773

>  <ADMET_Solubility_Level>  (23) 
4

>  <ADMET_Unknown_AlogP98>  (23) 
0

>  <ADMET_BBB>  (23) 
-1.226

>  <ADMET_BBB_Level>  (23) 
3

>  <ADMET_EXT_CYP2D6>  (23) 
-11.9515506820135

>  <ADMET_EXT_CYP2D6#Prediction>  (23) 
false

>  <ADMET_EXT_CYP2D6_Applicability>  (23) 
All properties and OPS components are within expected ranges.
Unknown FCFP_2 feature: 1018882710: [*]CS(=O)(=O)O[*]

>  <ADMET_EXT_CYP2D6_Applicability#MD>  (23) 
11.288105886469

>  <ADMET_EXT_CYP2D6_Applicability#MDpvalue>  (23) 
0.0127788572852976

>  <ADMET_EXT_Hepatotoxic>  (23) 
-7.30200613608129

>  <ADMET_EXT_Hepatotoxic#Prediction>  (23) 
false

>  <ADMET_EXT_Hepatotoxic_Applicability>  (23) 
All properties and OPS components are within expected ranges.
Unknown FCFP_2 feature: 1018882710: [*]CS(=O)(=O)O[*]

>  <ADMET_EXT_Hepatotoxic_Applicability#MD>  (23) 
10.6552744434905

>  <ADMET_EXT_Hepatotoxic_Applicability#MDpvalue>  (23) 
0.0174966536353334

>  <ADMET_Absorption_Level>  (23) 
0

>  <ADMET_EXT_PPB>  (23) 
-5.69602032978971

>  <ADMET_EXT_PPB#Prediction>  (23) 
false

>  <ADMET_EXT_PPB_Applicability>  (23) 
All properties and OPS components are within expected ranges.

>  <ADMET_EXT_PPB_Applicability#MD>  (23) 
12.5175318458709

>  <ADMET_EXT_PPB_Applicability#MDpvalue>  (23) 
0.0254574456051194

>  <ADMET_AlogP98>  (23) 
0.644

>  <ADMET_PSA_2D>  (23) 
80.347

$$$$
Molecule
     RDKit          3D

 24 25  0  0  0  0  0  0  0  0999 V2000
   -3.0132   -2.1464    0.1507 S   0  0  0  0  0  0  0  0  0  0  0  0
   -3.1859   -0.3729    0.0116 N   0  0  0  0  0  0  0  0  0  0  0  0
   -2.1829   -2.4576    1.3829 O   0  0  0  0  0  0  0  0  0  0  0  0
   -2.2712   -2.6573   -1.0710 O   0  0  0  0  0  0  0  0  0  0  0  0
    1.8591   -0.2830   -0.0388 C   0  0  0  0  0  0  0  0  0  0  0  0
    3.0694    0.2858   -0.0529 N   0  0  0  0  0  0  0  0  0  0  0  0
    6.7634   -0.4160    0.0253 N   0  0  0  0  0  0  0  0  0  0  0  0
   -4.4536    0.3572   -0.0357 C   0  0  0  0  0  0  0  0  0  0  0  0
    1.7671   -1.5147    0.0140 O   0  0  0  0  0  0  0  0  0  0  0  0
   -4.5353   -3.1373    0.2935 C   0  0  0  0  0  0  0  0  0  0  0  0
    5.5183    0.2522   -0.0057 C   0  0  0  0  0  0  0  0  0  0  0  0
    4.2427   -0.5584   -0.0080 C   0  0  0  0  0  0  0  0  0  0  0  0
   -1.9619    0.4555   -0.0590 C   0  0  0  0  0  0  0  0  0  0  0  0
    0.6003    0.5592   -0.0830 C   0  0  0  0  0  0  0  0  0  0  0  0
   -0.6441   -0.3702   -0.0292 C   0  0  0  0  0  0  0  0  0  0  0  0
    7.8659    0.2244    0.0280 C   0  0  0  0  0  0  0  0  0  0  0  0
   -4.4066    1.6899   -0.1298 C   0  0  0  0  0  0  0  0  0  0  0  0
   -5.7774   -0.2841    0.0142 C   0  0  0  0  0  0  0  0  0  0  0  0
    5.4723    1.5836   -0.0328 C   0  0  0  0  0  0  0  0  0  0  0  0
    7.8762    1.6869   -0.0008 C   0  0  0  0  0  0  0  0  0  0  0  0
   -5.6397    2.4865   -0.1804 C   0  0  0  0  0  0  0  0  0  0  0  0
   -6.8967    0.4357   -0.0311 C   0  0  0  0  0  0  0  0  0  0  0  0
    6.7203    2.3432   -0.0301 C   0  0  0  0  0  0  0  0  0  0  0  0
   -6.8265    1.8875   -0.1328 C   0  0  0  0  0  0  0  0  0  0  0  0
  2  1  1  0
  3  1  2  0
  4  1  2  0
  5 14  1  0
  6  5  1  0
  7 11  2  0
  8  2  1  0
  9  5  2  0
 10  1  1  0
 11 12  1  0
 12  6  1  0
 13  2  1  0
 14 15  1  0
 15 13  1  0
 16  7  1  0
 17  8  2  0
 18  8  1  0
 19 11  1  0
 20 16  2  0
 21 17  1  0
 22 18  2  0
 23 19  2  0
 24 22  1  0
 24 21  2  0
 20 23  1  0
M  END
>  <Name>  (24) 
Molecule

>  <IDNUMBER>  (24) 
ASN 14213991

>  <Num_H_Acceptors_Lipinski>  (24) 
6

>  <Num_H_Donors_Lipinski>  (24) 
1

>  <Molecular_Weight>  (24) 
347.43194

>  <ALogP>  (24) 
1.224

>  <Num_RotatableBonds>  (24) 
8

>  <Molecular_PolarSurfaceArea>  (24) 
87.75

>  <Num_H_Acceptors>  (24) 
4

>  <Num_H_Donors>  (24) 
1

>  <ADMET_Solubility>  (24) 
-2.064

>  <ADMET_Solubility_Level>  (24) 
3

>  <ADMET_Unknown_AlogP98>  (24) 
0

>  <ADMET_BBB>  (24) 
-1.031

>  <ADMET_BBB_Level>  (24) 
3

>  <ADMET_EXT_CYP2D6>  (24) 
-13.4244994219858

>  <ADMET_EXT_CYP2D6#Prediction>  (24) 
false

>  <ADMET_EXT_CYP2D6_Applicability>  (24) 
All properties and OPS components are within expected ranges.
Unknown FCFP_2 feature: 1018882710: [*]CS(=O)(=O)O[*]

>  <ADMET_EXT_CYP2D6_Applicability#MD>  (24) 
12.6156233107696

>  <ADMET_EXT_CYP2D6_Applicability#MDpvalue>  (24) 
0.000746862265200456

>  <ADMET_EXT_Hepatotoxic>  (24) 
-4.74452306784455

>  <ADMET_EXT_Hepatotoxic#Prediction>  (24) 
false

>  <ADMET_EXT_Hepatotoxic_Applicability>  (24) 
All properties and OPS components are within expected ranges.
Unknown FCFP_2 feature: 1018882710: [*]CS(=O)(=O)O[*]

>  <ADMET_EXT_Hepatotoxic_Applicability#MD>  (24) 
9.77440343552988

>  <ADMET_EXT_Hepatotoxic_Applicability#MDpvalue>  (24) 
0.142506780170984

>  <ADMET_Absorption_Level>  (24) 
0

>  <ADMET_EXT_PPB>  (24) 
-6.55600102269048

>  <ADMET_EXT_PPB#Prediction>  (24) 
false

>  <ADMET_EXT_PPB_Applicability>  (24) 
All properties and OPS components are within expected ranges.

>  <ADMET_EXT_PPB_Applicability#MD>  (24) 
12.1539625046407

>  <ADMET_EXT_PPB_Applicability#MDpvalue>  (24) 
0.0662534727616159

>  <ADMET_AlogP98>  (24) 
1.224

>  <ADMET_PSA_2D>  (24) 
79.326

$$$$
Molecule
     RDKit          3D

 13 14  0  0  0  0  0  0  0  0999 V2000
   -2.6420    0.6585   -0.1960 S   0  0  0  0  0  0  0  0  0  0  0  0
   -0.9608    1.1815    0.0238 C   0  0  0  0  0  0  0  0  0  0  0  0
   -2.3918   -0.9105    0.5121 C   0  0  0  0  0  0  0  0  0  0  0  0
   -1.0991   -1.2391    0.3911 C   0  0  0  0  0  0  0  0  0  0  0  0
   -0.2518   -0.1551   -0.3181 C   0  0  2  0  0  0  0  0  0  0  0  0
    1.1507   -0.1682    0.1420 N   0  0  0  0  0  0  0  0  0  0  0  0
   -3.6377    1.5363    0.5397 O   0  0  0  0  0  0  0  0  0  0  0  0
   -3.0011    0.4935   -1.6596 O   0  0  0  0  0  0  0  0  0  0  0  0
    1.9232    0.9307   -0.4791 C   0  0  0  0  0  0  0  0  0  0  0  0
    1.7712   -1.4775   -0.1631 C   0  0  0  0  0  0  0  0  0  0  0  0
    3.3501    0.9513    0.1140 C   0  0  0  0  0  0  0  0  0  0  0  0
    3.1953   -1.5265    0.4302 C   0  0  0  0  0  0  0  0  0  0  0  0
    4.0350   -0.3932   -0.1798 C   0  0  0  0  0  0  0  0  0  0  0  0
  2  1  1  0
  3  1  1  0
  4  3  2  0
  5  2  1  0
  5  6  1  1
  7  1  2  0
  8  1  2  0
  9  6  1  0
 10  6  1  0
 11  9  1  0
 12 10  1  0
 13 12  1  0
  4  5  1  0
 13 11  1  0
M  END
>  <Name>  (25) 
Molecule

>  <IDNUMBER>  (25) 
BAS 00159021

>  <Num_H_Acceptors_Lipinski>  (25) 
3

>  <Num_H_Donors_Lipinski>  (25) 
0

>  <Molecular_Weight>  (25) 
201.2859

>  <ALogP>  (25) 
0.617

>  <Num_RotatableBonds>  (25) 
1

>  <Molecular_PolarSurfaceArea>  (25) 
45.76

>  <Num_H_Acceptors>  (25) 
3

>  <Num_H_Donors>  (25) 
0

>  <ADMET_Solubility>  (25) 
-1.76

>  <ADMET_Solubility_Level>  (25) 
4

>  <ADMET_Unknown_AlogP98>  (25) 
0

>  <ADMET_BBB>  (25) 
-0.564

>  <ADMET_BBB_Level>  (25) 
3

>  <ADMET_EXT_CYP2D6>  (25) 
-7.5720645194635

>  <ADMET_EXT_CYP2D6#Prediction>  (25) 
false

>  <ADMET_EXT_CYP2D6_Applicability>  (25) 
All properties and OPS components are within expected ranges.

>  <ADMET_EXT_CYP2D6_Applicability#MD>  (25) 
14.963541859929

>  <ADMET_EXT_CYP2D6_Applicability#MDpvalue>  (25) 
2.24356402583263e-06

>  <ADMET_EXT_Hepatotoxic>  (25) 
-6.0431340339746

>  <ADMET_EXT_Hepatotoxic#Prediction>  (25) 
false

>  <ADMET_EXT_Hepatotoxic_Applicability>  (25) 
All properties and OPS components are within expected ranges.
Unknown FCFP_2 feature: 1018852919: O=S1(=O)C[*][*]C1

>  <ADMET_EXT_Hepatotoxic_Applicability#MD>  (25) 
10.4102488964429

>  <ADMET_EXT_Hepatotoxic_Applicability#MDpvalue>  (25) 
0.034016007310028

>  <ADMET_Absorption_Level>  (25) 
0

>  <ADMET_EXT_PPB>  (25) 
-3.75369107525765

>  <ADMET_EXT_PPB#Prediction>  (25) 
false

>  <ADMET_EXT_PPB_Applicability>  (25) 
All properties and OPS components are within expected ranges.

>  <ADMET_EXT_PPB_Applicability#MD>  (25) 
13.1782320974091

>  <ADMET_EXT_PPB_Applicability#MDpvalue>  (25) 
0.00299468903476862

>  <ADMET_AlogP98>  (25) 
0.617

>  <ADMET_PSA_2D>  (25) 
37.954

$$$$
Molecule
     RDKit          3D

 15 15  0  0  0  0  0  0  0  0999 V2000
   -3.0715    0.2797    0.1520 S   0  0  0  0  0  0  0  0  0  0  0  0
   -1.4791   -0.2851    0.6537 C   0  0  0  0  0  0  0  0  0  0  0  0
   -2.6960    1.9564    0.4217 C   0  0  0  0  0  0  0  0  0  0  0  0
    1.7716   -0.1330   -0.3408 C   0  0  1  0  0  0  0  0  0  0  0  0
    1.4013   -1.6166   -0.1792 C   0  0  0  0  0  0  0  0  0  0  0  0
   -1.3721    2.1230    0.2981 C   0  0  0  0  0  0  0  0  0  0  0  0
    0.8239    0.8440    0.3458 N   0  0  0  0  0  0  0  0  0  0  0  0
   -0.6220    0.8127   -0.0539 C   0  0  1  0  0  0  0  0  0  0  0  0
   -3.2862    0.0307   -1.3297 O   0  0  0  0  0  0  0  0  0  0  0  0
   -4.2036   -0.2711    0.9958 O   0  0  0  0  0  0  0  0  0  0  0  0
    2.1239   -2.3838    0.4673 O   0  0  0  0  0  0  0  0  0  0  0  0
    3.2003    0.1389    0.2124 C   0  0  0  0  0  0  0  0  0  0  0  0
    0.2884   -2.1389   -0.8345 O   0  0  0  0  0  0  0  0  0  0  0  0
    4.2548   -0.7094   -0.5416 C   0  0  0  0  0  0  0  0  0  0  0  0
    3.5436    1.6251    0.0081 C   0  0  0  0  0  0  0  0  0  0  0  0
  2  1  1  0
  3  1  1  0
  4  7  1  1
  5  4  1  0
  6  3  2  0
  8  7  1  1
  8  2  1  0
  9  1  2  0
 10  1  2  0
 11  5  2  0
 12  4  1  0
 13  5  1  0
 14 12  1  0
 15 12  1  0
  6  8  1  0
M  END
>  <Name>  (26) 
Molecule

>  <IDNUMBER>  (26) 
BAS 00279515

>  <Num_H_Acceptors_Lipinski>  (26) 
5

>  <Num_H_Donors_Lipinski>  (26) 
2

>  <Molecular_Weight>  (26) 
233.2847

>  <ALogP>  (26) 
-2.732

>  <Num_RotatableBonds>  (26) 
4

>  <Molecular_PolarSurfaceArea>  (26) 
91.85

>  <Num_H_Acceptors>  (26) 
5

>  <Num_H_Donors>  (26) 
2

>  <ADMET_Solubility>  (26) 
-0.882

>  <ADMET_Solubility_Level>  (26) 
4

>  <ADMET_Unknown_AlogP98>  (26) 
0

>  <ADMET_BBB>  (26) 
-1.516

>  <ADMET_BBB_Level>  (26) 
3

>  <ADMET_EXT_CYP2D6>  (26) 
-8.5972089723695

>  <ADMET_EXT_CYP2D6#Prediction>  (26) 
false

>  <ADMET_EXT_CYP2D6_Applicability>  (26) 
ALogP out of range. Value: -2.732. Training min, max, mean, SD: -0.811, 9.062, 3.2351, 1.51.

>  <ADMET_EXT_CYP2D6_Applicability#MD>  (26) 
17.6072882395852

>  <ADMET_EXT_CYP2D6_Applicability#MDpvalue>  (26) 
2.02809435671387e-09

>  <ADMET_EXT_Hepatotoxic>  (26) 
-6.56802643166832

>  <ADMET_EXT_Hepatotoxic#Prediction>  (26) 
false

>  <ADMET_EXT_Hepatotoxic_Applicability>  (26) 
All properties and OPS components are within expected ranges.
Unknown FCFP_2 feature: 1018852919: O=S1(=O)C[*][*]C1

>  <ADMET_EXT_Hepatotoxic_Applicability#MD>  (26) 
7.46697880226088

>  <ADMET_EXT_Hepatotoxic_Applicability#MDpvalue>  (26) 
0.97412975328466

>  <ADMET_Absorption_Level>  (26) 
0

>  <ADMET_EXT_PPB>  (26) 
-5.24412011431266

>  <ADMET_EXT_PPB#Prediction>  (26) 
false

>  <ADMET_EXT_PPB_Applicability>  (26) 
All properties and OPS components are within expected ranges.

>  <ADMET_EXT_PPB_Applicability#MD>  (26) 
12.5367118014087

>  <ADMET_EXT_PPB_Applicability#MDpvalue>  (26) 
0.0240984246854704

>  <ADMET_AlogP98>  (26) 
-0.027

>  <ADMET_PSA_2D>  (26) 
85.528

$$$$
Molecule
     RDKit          3D

 26 27  0  0  0  0  0  0  0  0999 V2000
   -1.2343    0.5511   -0.0001 C   0  0  0  0  0  0  0  0  0  0  0  0
   -1.3123   -0.9265    0.0003 C   0  0  0  0  0  0  0  0  0  0  0  0
   -2.3496    1.2841   -0.0003 C   0  0  0  0  0  0  0  0  0  0  0  0
   -2.5582   -1.6138    0.0007 N   0  0  0  0  0  0  0  0  0  0  0  0
   -3.6559    0.6634   -0.0001 C   0  0  0  0  0  0  0  0  0  0  0  0
   -3.7939   -0.7987    0.0005 C   0  0  0  0  0  0  0  0  0  0  0  0
    0.0876    1.2480   -0.0002 C   0  0  0  0  0  0  0  0  0  0  0  0
    1.3056    0.5507    0.0000 N   0  0  0  0  0  0  0  0  0  0  0  0
   -0.2672   -1.5866    0.0007 O   0  0  0  0  0  0  0  0  0  0  0  0
    2.4388    1.2762    0.0002 N   0  0  0  0  0  0  0  0  0  0  0  0
    3.7102    0.6806    0.0001 C   0  0  0  0  0  0  0  0  0  0  0  0
    0.1276    2.4827   -0.0003 O   0  0  0  0  0  0  0  0  0  0  0  0
   -2.2777    2.6719   -0.0006 O   0  0  0  0  0  0  0  0  0  0  0  0
    3.8224   -0.5500   -0.0002 O   0  0  0  0  0  0  0  0  0  0  0  0
   -2.4404   -3.1286    0.0024 C   0  0  0  0  0  0  0  0  0  0  0  0
   -4.7311    1.4513   -0.0003 C   0  0  0  0  0  0  0  0  0  0  0  0
   -5.0339   -1.3011    0.0010 C   0  0  0  0  0  0  0  0  0  0  0  0
    4.9437    1.5563    0.0003 C   0  0  0  0  0  0  0  0  0  0  0  0
   -3.7019   -4.0493   -0.0059 C   0  0  0  0  0  0  0  0  0  0  0  0
    6.2224    0.6893    0.0000 C   0  0  0  0  0  0  0  0  0  0  0  0
    8.7476    0.7392    0.0000 C   0  0  0  0  0  0  0  0  0  0  0  0
   -6.0675    0.8808    0.0001 C   0  0  0  0  0  0  0  0  0  0  0  0
    7.4692    1.6032    0.0003 C   0  0  0  0  0  0  0  0  0  0  0  0
   -6.2134   -0.4382    0.0008 C   0  0  0  0  0  0  0  0  0  0  0  0
   -3.2794   -5.5285   -0.0013 C   0  0  0  0  0  0  0  0  0  0  0  0
    9.9914    1.6505    0.0003 C   0  0  0  0  0  0  0  0  0  0  0  0
  2  1  1  0
  3  1  2  0
  4  2  1  0
  5  3  1  0
  6  4  1  0
  7  1  1  0
  8  7  1  0
  9  2  2  0
 10  8  1  0
 11 10  1  0
 12  7  2  0
 13  3  1  0
 14 11  2  0
 15  4  1  0
 16  5  2  0
 17  6  2  0
 18 11  1  0
 19 15  1  0
 20 18  1  0
 21 23  1  0
 22 16  1  0
 23 20  1  0
 24 17  1  0
 25 19  1  0
 26 21  1  0
  5  6  1  0
 22 24  2  0
M  END
>  <Name>  (27) 
Molecule

>  <IDNUMBER>  (27) 
BAS 00505195

>  <Num_H_Acceptors_Lipinski>  (27) 
7

>  <Num_H_Donors_Lipinski>  (27) 
3

>  <Molecular_Weight>  (27) 
359.4195

>  <ALogP>  (27) 
2.166

>  <Num_RotatableBonds>  (27) 
8

>  <Molecular_PolarSurfaceArea>  (27) 
98.74

>  <Num_H_Acceptors>  (27) 
4

>  <Num_H_Donors>  (27) 
3

>  <ADMET_Solubility>  (27) 
-2.585

>  <ADMET_Solubility_Level>  (27) 
3

>  <ADMET_Unknown_AlogP98>  (27) 
0

>  <ADMET_BBB>  (27) 
-1.094

>  <ADMET_BBB_Level>  (27) 
3

>  <ADMET_EXT_CYP2D6>  (27) 
-4.27116127054176

>  <ADMET_EXT_CYP2D6#Prediction>  (27) 
false

>  <ADMET_EXT_CYP2D6_Applicability>  (27) 
All properties and OPS components are within expected ranges.
Unknown FCFP_2 feature: -1678305332: [*]C1=C(O)[c](:[*]):[*][*]1

>  <ADMET_EXT_CYP2D6_Applicability#MD>  (27) 
11.3396213253414

>  <ADMET_EXT_CYP2D6_Applicability#MDpvalue>  (27) 
0.0115499520021407

>  <ADMET_EXT_Hepatotoxic>  (27) 
-4.70421157900349

>  <ADMET_EXT_Hepatotoxic#Prediction>  (27) 
false

>  <ADMET_EXT_Hepatotoxic_Applicability>  (27) 
All properties and OPS components are within expected ranges.
Unknown FCFP_2 feature: -885461129: [*]NNC(=[*])[*]

>  <ADMET_EXT_Hepatotoxic_Applicability#MD>  (27) 
11.6259031998259

>  <ADMET_EXT_Hepatotoxic_Applicability#MDpvalue>  (27) 
0.000703248577229941

>  <ADMET_Absorption_Level>  (27) 
0

>  <ADMET_EXT_PPB>  (27) 
-0.204196249606035

>  <ADMET_EXT_PPB#Prediction>  (27) 
true

>  <ADMET_EXT_PPB_Applicability>  (27) 
All properties and OPS components are within expected ranges.

>  <ADMET_EXT_PPB_Applicability#MD>  (27) 
14.2059172921818

>  <ADMET_EXT_PPB_Applicability#MDpvalue>  (27) 
4.01041135694516e-05

>  <ADMET_AlogP98>  (27) 
2.166

>  <ADMET_PSA_2D>  (27) 
101.69

$$$$
Molecule
     RDKit          3D

 17 18  0  0  0  0  0  0  0  0999 V2000
    0.6467    1.3294    0.2154 N   0  0  0  0  0  0  0  0  0  0  0  0
    1.3887    0.2904    0.0895 C   0  0  0  0  0  0  0  0  0  0  0  0
    0.6180   -0.8694   -0.1566 N   0  0  0  0  0  0  0  0  0  0  0  0
   -0.6674    0.8812    0.0482 C   0  0  0  0  0  0  0  0  0  0  0  0
   -0.6698   -0.4098   -0.1698 C   0  0  0  0  0  0  0  0  0  0  0  0
   -1.8922    1.6573    0.0844 C   0  0  0  0  0  0  0  0  0  0  0  0
    2.7786    0.2904    0.1772 N   0  0  0  0  0  0  0  0  0  0  0  0
   -1.8814   -1.1569   -0.3911 C   0  0  0  0  0  0  0  0  0  0  0  0
   -3.0475    1.0096   -0.1158 C   0  0  0  0  0  0  0  0  0  0  0  0
   -3.0323   -0.4792   -0.3694 C   0  0  0  0  0  0  0  0  0  0  0  0
    5.0025   -0.7011    0.0960 C   0  0  0  0  0  0  0  0  0  0  0  0
   -4.2582    1.7539   -0.1070 O   0  0  0  0  0  0  0  0  0  0  0  0
    7.1511   -1.8272    0.0011 O   0  0  0  0  0  0  0  0  0  0  0  0
    3.4874   -0.9457    0.0103 C   0  0  0  0  0  0  0  0  0  0  0  0
    5.7403   -2.0422   -0.0773 C   0  0  0  0  0  0  0  0  0  0  0  0
   -5.4484    0.9549   -0.3257 C   0  0  0  0  0  0  0  0  0  0  0  0
   -5.9442    0.2966    0.9926 C   0  0  0  0  0  0  0  0  0  0  0  0
  2  1  2  0
  3  2  1  0
  4  1  1  0
  5  4  2  0
  6  4  1  0
  7  2  1  0
  8  5  1  0
  9  6  2  0
 10  9  1  0
 11 14  1  0
 12  9  1  0
 13 15  1  0
 14  7  1  0
 15 11  1  0
 16 12  1  0
 17 16  1  0
  3  5  1  0
 10  8  2  0
M  END
>  <Name>  (28) 
Molecule

>  <IDNUMBER>  (28) 
BAS 00619342

>  <Num_H_Acceptors_Lipinski>  (28) 
5

>  <Num_H_Donors_Lipinski>  (28) 
3

>  <Molecular_Weight>  (28) 
235.28228

>  <ALogP>  (28) 
1.551

>  <Num_RotatableBonds>  (28) 
6

>  <Molecular_PolarSurfaceArea>  (28) 
70.17

>  <Num_H_Acceptors>  (28) 
4

>  <Num_H_Donors>  (28) 
3

>  <ADMET_Solubility>  (28) 
-2.078

>  <ADMET_Solubility_Level>  (28) 
3

>  <ADMET_Unknown_AlogP98>  (28) 
0

>  <ADMET_BBB>  (28) 
-0.764

>  <ADMET_BBB_Level>  (28) 
3

>  <ADMET_EXT_CYP2D6>  (28) 
-5.54118939880555

>  <ADMET_EXT_CYP2D6#Prediction>  (28) 
false

>  <ADMET_EXT_CYP2D6_Applicability>  (28) 
All properties and OPS components are within expected ranges.

>  <ADMET_EXT_CYP2D6_Applicability#MD>  (28) 
12.5311529082552

>  <ADMET_EXT_CYP2D6_Applicability#MDpvalue>  (28) 
0.000906154853807064

>  <ADMET_EXT_Hepatotoxic>  (28) 
-5.36839455954934

>  <ADMET_EXT_Hepatotoxic#Prediction>  (28) 
false

>  <ADMET_EXT_Hepatotoxic_Applicability>  (28) 
All properties and OPS components are within expected ranges.

>  <ADMET_EXT_Hepatotoxic_Applicability#MD>  (28) 
11.3255718260528

>  <ADMET_EXT_Hepatotoxic_Applicability#MDpvalue>  (28) 
0.00209139662408844

>  <ADMET_Absorption_Level>  (28) 
0

>  <ADMET_EXT_PPB>  (28) 
2.81169056002376

>  <ADMET_EXT_PPB#Prediction>  (28) 
true

>  <ADMET_EXT_PPB_Applicability>  (28) 
All properties and OPS components are within expected ranges.

>  <ADMET_EXT_PPB_Applicability#MD>  (28) 
12.8422737956098

>  <ADMET_EXT_PPB_Applicability#MDpvalue>  (28) 
0.00947964089766908

>  <ADMET_AlogP98>  (28) 
1.551

>  <ADMET_PSA_2D>  (28) 
68.871

$$$$
Molecule
     RDKit          3D

 30 32  0  0  0  0  0  0  0  0999 V2000
   -2.1472    0.0530    0.0000 C   0  0  0  0  0  0  0  0  0  0  0  0
   -2.1128   -1.4342   -0.0001 C   0  0  0  0  0  0  0  0  0  0  0  0
   -3.3062    0.7026    0.0000 C   0  0  0  0  0  0  0  0  0  0  0  0
   -3.3562   -2.1785   -0.0002 N   0  0  0  0  0  0  0  0  0  0  0  0
   -0.8825    0.8200    0.0001 C   0  0  0  0  0  0  0  0  0  0  0  0
   -4.5603   -0.0162   -0.0001 C   0  0  0  0  0  0  0  0  0  0  0  0
   -4.5628   -1.4708   -0.0002 C   0  0  0  0  0  0  0  0  0  0  0  0
    0.2945    0.1818    0.0001 N   0  0  0  0  0  0  0  0  0  0  0  0
    5.4794    2.7756    0.0002 C   0  0  0  0  0  0  0  0  0  0  0  0
   -1.0158   -1.9962   -0.0001 O   0  0  0  0  0  0  0  0  0  0  0  0
   -0.9397    2.0563    0.0002 O   0  0  0  0  0  0  0  0  0  0  0  0
    4.1352    2.0268    0.0002 C   0  0  0  0  0  0  0  0  0  0  0  0
   -3.3406    2.0944    0.0001 O   0  0  0  0  0  0  0  0  0  0  0  0
    5.4020    4.0097    0.0003 O   0  0  0  0  0  0  0  0  0  0  0  0
   -3.4441   -3.6558   -0.0003 C   0  0  0  0  0  0  0  0  0  0  0  0
   -2.1410   -4.4025   -0.0007 C   0  0  0  0  0  0  0  0  0  0  0  0
    1.5697    0.8262    0.0001 C   0  0  0  0  0  0  0  0  0  0  0  0
    2.9243    2.8515    0.0003 C   0  0  0  0  0  0  0  0  0  0  0  0
    3.9869    0.6963    0.0000 C   0  0  0  0  0  0  0  0  0  0  0  0
   -2.1413   -5.7337   -0.0009 C   0  0  0  0  0  0  0  0  0  0  0  0
    6.8402    2.2252    0.0002 O   0  0  0  0  0  0  0  0  0  0  0  0
   -5.7041    0.6590   -0.0001 C   0  0  0  0  0  0  0  0  0  0  0  0
    2.6642    0.0746    0.0000 C   0  0  0  0  0  0  0  0  0  0  0  0
    1.7172    2.2905    0.0002 C   0  0  0  0  0  0  0  0  0  0  0  0
   -5.7250   -2.1271   -0.0003 C   0  0  0  0  0  0  0  0  0  0  0  0
    7.0368    0.8008    0.0001 C   0  0  0  0  0  0  0  0  0  0  0  0
    8.5306    0.4592    0.0002 C   0  0  0  0  0  0  0  0  0  0  0  0
   -6.9780   -0.0558   -0.0002 C   0  0  0  0  0  0  0  0  0  0  0  0
   -6.9883   -1.3870   -0.0003 C   0  0  0  0  0  0  0  0  0  0  0  0
    8.6866   -1.0730    0.0001 C   0  0  0  0  0  0  0  0  0  0  0  0
  2  1  1  0
  3  1  2  0
  4  2  1  0
  5  1  1  0
  6  3  1  0
  7  4  1  0
  8  5  1  0
  9 12  1  0
 10  2  2  0
 11  5  2  0
 12 18  2  0
 13  3  1  0
 14  9  2  0
 15  4  1  0
 16 15  1  0
 17  8  1  0
 18 24  1  0
 19 23  2  0
 20 16  2  0
 21  9  1  0
 22  6  2  0
 23 17  1  0
 24 17  2  0
 25  7  2  0
 26 21  1  0
 27 26  1  0
 28 22  1  0
 29 25  1  0
 30 27  1  0
  6  7  1  0
 28 29  2  0
 12 19  1  0
M  END
>  <Name>  (29) 
Molecule

>  <IDNUMBER>  (29) 
BAS 00693239

>  <Num_H_Acceptors_Lipinski>  (29) 
7

>  <Num_H_Donors_Lipinski>  (29) 
2

>  <Molecular_Weight>  (29) 
406.43118

>  <ALogP>  (29) 
3.01

>  <Num_RotatableBonds>  (29) 
8

>  <Molecular_PolarSurfaceArea>  (29) 
95.94

>  <Num_H_Acceptors>  (29) 
5

>  <Num_H_Donors>  (29) 
2

>  <ADMET_Solubility>  (29) 
-3.612

>  <ADMET_Solubility_Level>  (29) 
3

>  <ADMET_Unknown_AlogP98>  (29) 
0

>  <ADMET_BBB>  (29) 
-0.771

>  <ADMET_BBB_Level>  (29) 
3

>  <ADMET_EXT_CYP2D6>  (29) 
-6.30041961369377

>  <ADMET_EXT_CYP2D6#Prediction>  (29) 
false

>  <ADMET_EXT_CYP2D6_Applicability>  (29) 
All properties and OPS components are within expected ranges.
Unknown FCFP_2 feature: -1678305332: [*]C1=C(O)[c](:[*]):[*][*]1

>  <ADMET_EXT_CYP2D6_Applicability#MD>  (29) 
14.0699420436691

>  <ADMET_EXT_CYP2D6_Applicability#MDpvalue>  (29) 
2.2137055071751e-05

>  <ADMET_EXT_Hepatotoxic>  (29) 
-9.66511904929026

>  <ADMET_EXT_Hepatotoxic#Prediction>  (29) 
false

>  <ADMET_EXT_Hepatotoxic_Applicability>  (29) 
All properties and OPS components are within expected ranges.

>  <ADMET_EXT_Hepatotoxic_Applicability#MD>  (29) 
11.3747300213014

>  <ADMET_EXT_Hepatotoxic_Applicability#MDpvalue>  (29) 
0.00175963407108729

>  <ADMET_Absorption_Level>  (29) 
0

>  <ADMET_EXT_PPB>  (29) 
-0.856349542979139

>  <ADMET_EXT_PPB#Prediction>  (29) 
true

>  <ADMET_EXT_PPB_Applicability>  (29) 
All properties and OPS components are within expected ranges.

>  <ADMET_EXT_PPB_Applicability#MD>  (29) 
13.9027847082015

>  <ADMET_EXT_PPB_Applicability#MDpvalue>  (29) 
0.000161323598853689

>  <ADMET_AlogP98>  (29) 
3.01

>  <ADMET_PSA_2D>  (29) 
97.81

$$$$
Molecule
     RDKit          3D

 27 28  0  0  0  0  0  0  0  0999 V2000
   -2.2642    0.3079    0.0000 C   0  0  0  0  0  0  0  0  0  0  0  0
   -2.3256   -1.1649    0.0001 C   0  0  0  0  0  0  0  0  0  0  0  0
   -3.3900    1.0286    0.0000 C   0  0  0  0  0  0  0  0  0  0  0  0
   -3.5552   -1.8696    0.0002 N   0  0  0  0  0  0  0  0  0  0  0  0
   -4.6924    0.3855    0.0000 C   0  0  0  0  0  0  0  0  0  0  0  0
   -4.8054   -1.0797    0.0002 C   0  0  0  0  0  0  0  0  0  0  0  0
   -0.9418    1.0096    0.0000 C   0  0  0  0  0  0  0  0  0  0  0  0
    0.2814    0.3017    0.0000 N   0  0  0  0  0  0  0  0  0  0  0  0
   -1.2719   -1.8112    0.0002 O   0  0  0  0  0  0  0  0  0  0  0  0
    1.4342    1.0070    0.0001 N   0  0  0  0  0  0  0  0  0  0  0  0
    2.7014    0.3801   -0.0001 C   0  0  0  0  0  0  0  0  0  0  0  0
   -0.9036    2.2441    0.0000 O   0  0  0  0  0  0  0  0  0  0  0  0
   -3.3342    2.4171   -0.0001 O   0  0  0  0  0  0  0  0  0  0  0  0
    2.7853   -0.8530   -0.0004 O   0  0  0  0  0  0  0  0  0  0  0  0
   -3.4016   -3.3762    0.0008 C   0  0  0  0  0  0  0  0  0  0  0  0
   -5.7830    1.1535    0.0000 C   0  0  0  0  0  0  0  0  0  0  0  0
   -6.0351   -1.6072    0.0005 C   0  0  0  0  0  0  0  0  0  0  0  0
    3.9621    1.2303    0.0001 C   0  0  0  0  0  0  0  0  0  0  0  0
   -4.6305   -4.3324   -0.0030 C   0  0  0  0  0  0  0  0  0  0  0  0
    5.2370    0.3427   -0.0002 C   0  0  0  0  0  0  0  0  0  0  0  0
   10.3144    0.3899   -0.0002 C   0  0  0  0  0  0  0  0  0  0  0  0
   -7.1100    0.5562    0.0002 C   0  0  0  0  0  0  0  0  0  0  0  0
    9.0427    1.2680    0.0001 C   0  0  0  0  0  0  0  0  0  0  0  0
    6.5048    1.2417    0.0001 C   0  0  0  0  0  0  0  0  0  0  0  0
    7.7837    0.3664   -0.0003 C   0  0  0  0  0  0  0  0  0  0  0  0
   -7.2314   -0.7657    0.0004 C   0  0  0  0  0  0  0  0  0  0  0  0
   11.5696    1.2870    0.0003 C   0  0  0  0  0  0  0  0  0  0  0  0
  2  1  1  0
  3  1  2  0
  4  2  1  0
  5  3  1  0
  6  4  1  0
  7  1  1  0
  8  7  1  0
  9  2  2  0
 10  8  1  0
 11 10  1  0
 12  7  2  0
 13  3  1  0
 14 11  2  0
 15  4  1  0
 16  5  2  0
 17  6  2  0
 18 11  1  0
 19 15  1  0
 20 18  1  0
 21 23  1  0
 22 16  1  0
 23 25  1  0
 24 20  1  0
 25 24  1  0
 26 17  1  0
 27 21  1  0
  5  6  1  0
 22 26  2  0
M  END
>  <Name>  (30) 
Molecule

>  <IDNUMBER>  (30) 
BAS 00693290

>  <Num_H_Acceptors_Lipinski>  (30) 
7

>  <Num_H_Donors_Lipinski>  (30) 
3

>  <Molecular_Weight>  (30) 
373.44608

>  <ALogP>  (30) 
2.554

>  <Num_RotatableBonds>  (30) 
9

>  <Molecular_PolarSurfaceArea>  (30) 
98.74

>  <Num_H_Acceptors>  (30) 
4

>  <Num_H_Donors>  (30) 
3

>  <ADMET_Solubility>  (30) 
-2.759

>  <ADMET_Solubility_Level>  (30) 
3

>  <ADMET_Unknown_AlogP98>  (30) 
0

>  <ADMET_BBB>  (30) 
-0.973

>  <ADMET_BBB_Level>  (30) 
3

>  <ADMET_EXT_CYP2D6>  (30) 
-4.54612814496599

>  <ADMET_EXT_CYP2D6#Prediction>  (30) 
false

>  <ADMET_EXT_CYP2D6_Applicability>  (30) 
All properties and OPS components are within expected ranges.
Unknown FCFP_2 feature: -1678305332: [*]C1=C(O)[c](:[*]):[*][*]1

>  <ADMET_EXT_CYP2D6_Applicability#MD>  (30) 
11.5645645666144

>  <ADMET_EXT_CYP2D6_Applicability#MDpvalue>  (30) 
0.00735628451238415

>  <ADMET_EXT_Hepatotoxic>  (30) 
-6.75646055556071

>  <ADMET_EXT_Hepatotoxic#Prediction>  (30) 
false

>  <ADMET_EXT_Hepatotoxic_Applicability>  (30) 
All properties and OPS components are within expected ranges.
Unknown FCFP_2 feature: -885461129: [*]NNC(=[*])[*]

>  <ADMET_EXT_Hepatotoxic_Applicability#MD>  (30) 
11.5847611921592

>  <ADMET_EXT_Hepatotoxic_Applicability#MDpvalue>  (30) 
0.000820451914932102

>  <ADMET_Absorption_Level>  (30) 
0

>  <ADMET_EXT_PPB>  (30) 
-1.48442620148415

>  <ADMET_EXT_PPB#Prediction>  (30) 
true

>  <ADMET_EXT_PPB_Applicability>  (30) 
All properties and OPS components are within expected ranges.

>  <ADMET_EXT_PPB_Applicability#MD>  (30) 
14.270592546387

>  <ADMET_EXT_PPB_Applicability#MDpvalue>  (30) 
2.94292906342237e-05

>  <ADMET_AlogP98>  (30) 
2.554

>  <ADMET_PSA_2D>  (30) 
101.69

$$$$
Molecule
     RDKit          3D

 27 28  0  0  0  0  0  0  0  0999 V2000
   -2.9180    0.1540    0.0001 C   0  0  0  0  0  0  0  0  0  0  0  0
   -2.9788   -1.3228    0.0000 C   0  0  0  0  0  0  0  0  0  0  0  0
   -4.0562    0.8651    0.0002 C   0  0  0  0  0  0  0  0  0  0  0  0
   -4.2180   -1.9924    0.0000 N   0  0  0  0  0  0  0  0  0  0  0  0
   -5.3524    0.1884    0.0002 C   0  0  0  0  0  0  0  0  0  0  0  0
   -5.4097   -1.2628    0.0001 C   0  0  0  0  0  0  0  0  0  0  0  0
   -1.5981    0.8598    0.0001 C   0  0  0  0  0  0  0  0  0  0  0  0
   -0.3711    0.1495    0.0000 N   0  0  0  0  0  0  0  0  0  0  0  0
   -1.9329   -1.9817   -0.0001 O   0  0  0  0  0  0  0  0  0  0  0  0
    0.7894    0.8482    0.0000 N   0  0  0  0  0  0  0  0  0  0  0  0
    2.0565    0.2098   -0.0001 C   0  0  0  0  0  0  0  0  0  0  0  0
   -1.5645    2.0942    0.0002 O   0  0  0  0  0  0  0  0  0  0  0  0
   -4.0209    2.2541    0.0003 O   0  0  0  0  0  0  0  0  0  0  0  0
    2.1301   -1.0240   -0.0002 O   0  0  0  0  0  0  0  0  0  0  0  0
   -4.2541   -3.4287   -0.0001 C   0  0  0  0  0  0  0  0  0  0  0  0
   -6.4788    0.9027    0.0003 C   0  0  0  0  0  0  0  0  0  0  0  0
   -6.5886   -1.8863    0.0002 C   0  0  0  0  0  0  0  0  0  0  0  0
    3.3280    1.0515   -0.0001 C   0  0  0  0  0  0  0  0  0  0  0  0
    4.6063    0.1600   -0.0003 C   0  0  0  0  0  0  0  0  0  0  0  0
   10.9558    1.1761   -0.0003 C   0  0  0  0  0  0  0  0  0  0  0  0
   -7.7777    0.2235    0.0003 C   0  0  0  0  0  0  0  0  0  0  0  0
    9.7144    0.2534   -0.0005 C   0  0  0  0  0  0  0  0  0  0  0  0
    8.4236    1.1103   -0.0003 C   0  0  0  0  0  0  0  0  0  0  0  0
    5.8787    1.0608   -0.0002 C   0  0  0  0  0  0  0  0  0  0  0  0
    7.1695    0.1940   -0.0004 C   0  0  0  0  0  0  0  0  0  0  0  0
   -7.8306   -1.1071    0.0003 C   0  0  0  0  0  0  0  0  0  0  0  0
   12.2426    0.3242   -0.0004 C   0  0  0  0  0  0  0  0  0  0  0  0
  2  1  1  0
  3  1  2  0
  4  2  1  0
  5  3  1  0
  6  4  1  0
  7  1  1  0
  8  7  1  0
  9  2  2  0
 10  8  1  0
 11 10  1  0
 12  7  2  0
 13  3  1  0
 14 11  2  0
 15  4  1  0
 16  5  2  0
 17  6  2  0
 18 11  1  0
 19 18  1  0
 20 22  1  0
 21 16  1  0
 22 23  1  0
 23 25  1  0
 24 19  1  0
 25 24  1  0
 26 17  1  0
 27 20  1  0
  6  5  1  0
 26 21  2  0
M  END
>  <Name>  (31) 
Molecule

>  <IDNUMBER>  (31) 
BAS 00693292

>  <Num_H_Acceptors_Lipinski>  (31) 
7

>  <Num_H_Donors_Lipinski>  (31) 
3

>  <Molecular_Weight>  (31) 
373.44608

>  <ALogP>  (31) 
2.662

>  <Num_RotatableBonds>  (31) 
9

>  <Molecular_PolarSurfaceArea>  (31) 
98.74

>  <Num_H_Acceptors>  (31) 
4

>  <Num_H_Donors>  (31) 
3

>  <ADMET_Solubility>  (31) 
-2.808

>  <ADMET_Solubility_Level>  (31) 
3

>  <ADMET_Unknown_AlogP98>  (31) 
0

>  <ADMET_BBB>  (31) 
-0.94

>  <ADMET_BBB_Level>  (31) 
3

>  <ADMET_EXT_CYP2D6>  (31) 
-4.08773560637075

>  <ADMET_EXT_CYP2D6#Prediction>  (31) 
false

>  <ADMET_EXT_CYP2D6_Applicability>  (31) 
All properties and OPS components are within expected ranges.
Unknown FCFP_2 feature: -1678305332: [*]C1=C(O)[c](:[*]):[*][*]1

>  <ADMET_EXT_CYP2D6_Applicability#MD>  (31) 
12.0617644193349

>  <ADMET_EXT_CYP2D6_Applicability#MDpvalue>  (31) 
0.00257886027229289

>  <ADMET_EXT_Hepatotoxic>  (31) 
-7.81506483453751

>  <ADMET_EXT_Hepatotoxic#Prediction>  (31) 
false

>  <ADMET_EXT_Hepatotoxic_Applicability>  (31) 
All properties and OPS components are within expected ranges.
Unknown FCFP_2 feature: -885461129: [*]NNC(=[*])[*]

>  <ADMET_EXT_Hepatotoxic_Applicability#MD>  (31) 
11.5788925986698

>  <ADMET_EXT_Hepatotoxic_Applicability#MDpvalue>  (31) 
0.000838587627490073

>  <ADMET_Absorption_Level>  (31) 
0

>  <ADMET_EXT_PPB>  (31) 
-1.45224423011115

>  <ADMET_EXT_PPB#Prediction>  (31) 
true

>  <ADMET_EXT_PPB_Applicability>  (31) 
All properties and OPS components are within expected ranges.

>  <ADMET_EXT_PPB_Applicability#MD>  (31) 
13.8276250512164

>  <ADMET_EXT_PPB_Applicability#MDpvalue>  (31) 
0.000224383171785

>  <ADMET_AlogP98>  (31) 
2.662

>  <ADMET_PSA_2D>  (31) 
101.69

$$$$
Molecule
     RDKit          3D

 18 19  0  0  0  0  0  0  0  0999 V2000
   -3.2677   -2.2498   -0.0024 N   0  0  0  0  0  0  0  0  0  0  0  0
   -3.2843   -0.8706   -0.1824 C   0  0  0  0  0  0  0  0  0  0  0  0
   -2.0805   -0.1611   -0.2403 N   0  0  0  0  0  0  0  0  0  0  0  0
   -2.0520   -2.9084    0.1370 C   0  0  0  0  0  0  0  0  0  0  0  0
   -0.8122   -2.1393    0.1031 C   0  0  0  0  0  0  0  0  0  0  0  0
   -0.8519   -0.8210   -0.0830 C   0  0  0  0  0  0  0  0  0  0  0  0
   -4.3598   -0.2748   -0.3075 O   0  0  0  0  0  0  0  0  0  0  0  0
   -2.0212   -4.1329    0.2914 O   0  0  0  0  0  0  0  0  0  0  0  0
    0.3325   -0.0808   -0.1187 N   0  0  0  0  0  0  0  0  0  0  0  0
   -4.4970   -2.9882    0.0366 C   0  0  0  0  0  0  0  0  0  0  0  0
    1.5693   -0.6575    0.3393 C   0  0  0  0  0  0  0  0  0  0  0  0
    2.9201    1.5038   -0.1061 C   0  0  0  0  0  0  0  0  0  0  0  0
    2.8151    0.0000   -0.3230 C   0  0  0  0  0  0  0  0  0  0  0  0
    1.9025    2.2152    0.3816 C   0  0  0  0  0  0  0  0  0  0  0  0
    4.1728    2.1830   -0.4526 C   0  0  0  0  0  0  0  0  0  0  0  0
    2.0318    3.6623    0.5642 C   0  0  0  0  0  0  0  0  0  0  0  0
    4.2931    3.4985   -0.2823 C   0  0  0  0  0  0  0  0  0  0  0  0
    3.1711    4.2742    0.2477 C   0  0  0  0  0  0  0  0  0  0  0  0
  2  1  1  0
  3  2  1  0
  4  1  1  0
  5  4  1  0
  6  3  1  0
  7  2  2  0
  8  4  2  0
  9  6  1  0
 10  1  1  0
 11  9  1  0
 12 13  1  0
 13 11  1  0
 14 12  2  0
 15 12  1  0
 16 14  1  0
 17 15  2  0
 18 17  1  0
  5  6  2  0
 18 16  2  0
M  END
>  <Name>  (32) 
Molecule

>  <IDNUMBER>  (32) 
BAS 00792847

>  <Num_H_Acceptors_Lipinski>  (32) 
5

>  <Num_H_Donors_Lipinski>  (32) 
2

>  <Molecular_Weight>  (32) 
245.2771

>  <ALogP>  (32) 
1.311

>  <Num_RotatableBonds>  (32) 
4

>  <Molecular_PolarSurfaceArea>  (32) 
61.44

>  <Num_H_Acceptors>  (32) 
3

>  <Num_H_Donors>  (32) 
2

>  <ADMET_Solubility>  (32) 
-2.657

>  <ADMET_Solubility_Level>  (32) 
3

>  <ADMET_Unknown_AlogP98>  (32) 
0

>  <ADMET_BBB>  (32) 
-0.593

>  <ADMET_BBB_Level>  (32) 
3

>  <ADMET_EXT_CYP2D6>  (32) 
-5.35176025237233

>  <ADMET_EXT_CYP2D6#Prediction>  (32) 
false

>  <ADMET_EXT_CYP2D6_Applicability>  (32) 
All properties and OPS components are within expected ranges.

>  <ADMET_EXT_CYP2D6_Applicability#MD>  (32) 
10.0363895169433

>  <ADMET_EXT_CYP2D6_Applicability#MDpvalue>  (32) 
0.110878698064956

>  <ADMET_EXT_Hepatotoxic>  (32) 
-4.59056877584026

>  <ADMET_EXT_Hepatotoxic#Prediction>  (32) 
false

>  <ADMET_EXT_Hepatotoxic_Applicability>  (32) 
All properties and OPS components are within expected ranges.
Unknown FCFP_2 feature: 1370439125: [*]NC(=C([*])[*])N[*]

>  <ADMET_EXT_Hepatotoxic_Applicability#MD>  (32) 
10.2644638543335

>  <ADMET_EXT_Hepatotoxic_Applicability#MDpvalue>  (32) 
0.0490561572649006

>  <ADMET_Absorption_Level>  (32) 
0

>  <ADMET_EXT_PPB>  (32) 
-10.3875936894487

>  <ADMET_EXT_PPB#Prediction>  (32) 
false

>  <ADMET_EXT_PPB_Applicability>  (32) 
All properties and OPS components are within expected ranges.

>  <ADMET_EXT_PPB_Applicability#MD>  (32) 
11.314213902227

>  <ADMET_EXT_PPB_Applicability#MDpvalue>  (32) 
0.329418674688856

>  <ADMET_AlogP98>  (32) 
1.835

>  <ADMET_PSA_2D>  (32) 
63.574

$$$$
Molecule
     RDKit          3D

 31 33  0  0  0  0  0  0  0  0999 V2000
   -2.4190   -3.0392   -0.1025 S   0  0  0  0  0  0  0  0  0  0  0  0
   -2.5517   -1.2423   -0.0667 N   0  0  0  0  0  0  0  0  0  0  0  0
   -1.3198   -0.3703   -0.0711 C   0  0  0  0  0  0  0  0  0  0  0  0
    0.0271   -1.0922    0.0923 C   0  0  0  0  0  0  0  0  0  0  0  0
    1.2612   -0.4208    0.1233 N   0  0  0  0  0  0  0  0  0  0  0  0
    3.9085    0.6644    0.0396 N   0  0  0  0  0  0  0  0  0  0  0  0
    5.2563    1.2601   -0.0003 C   0  0  0  0  0  0  0  0  0  0  0  0
   -1.3509   -3.4516   -1.0979 O   0  0  0  0  0  0  0  0  0  0  0  0
   -2.0162   -3.5119    1.2825 O   0  0  0  0  0  0  0  0  0  0  0  0
   -3.8305   -0.5418   -0.0035 C   0  0  0  0  0  0  0  0  0  0  0  0
    1.3926    1.0206    0.0595 C   0  0  0  0  0  0  0  0  0  0  0  0
    2.4175   -1.2363    0.2759 C   0  0  0  0  0  0  0  0  0  0  0  0
    2.7936    1.4192   -0.5498 C   0  0  0  0  0  0  0  0  0  0  0  0
    3.5743   -0.4389    0.8867 C   0  0  0  0  0  0  0  0  0  0  0  0
    0.0798   -2.3141    0.2023 O   0  0  0  0  0  0  0  0  0  0  0  0
    6.5050    0.6622   -0.0352 C   0  0  0  0  0  0  0  0  0  0  0  0
   -5.1051   -1.2468    0.1230 C   0  0  0  0  0  0  0  0  0  0  0  0
   -3.8544    0.7930   -0.0636 C   0  0  0  0  0  0  0  0  0  0  0  0
   -3.8860   -3.9938   -0.6211 C   0  0  0  0  0  0  0  0  0  0  0  0
   -6.2918    0.8445    0.0796 C   0  0  0  0  0  0  0  0  0  0  0  0
   -5.1439    1.5210   -0.0218 C   0  0  0  0  0  0  0  0  0  0  0  0
   -6.2618   -0.5982    0.1597 C   0  0  0  0  0  0  0  0  0  0  0  0
    6.9419   -0.7491   -0.1197 O   0  0  0  0  0  0  0  0  0  0  0  0
   -7.5404    1.4881    0.1060 O   0  0  0  0  0  0  0  0  0  0  0  0
    5.2120    2.7418    0.0085 C   0  0  0  0  0  0  0  0  0  0  0  0
    7.6867    1.5494   -0.0244 C   0  0  0  0  0  0  0  0  0  0  0  0
   -7.4279    2.9080    0.0070 C   0  0  0  0  0  0  0  0  0  0  0  0
    6.0782   -1.8562   -0.3268 C   0  0  0  0  0  0  0  0  0  0  0  0
   -8.8443    3.5153    0.0008 C   0  0  0  0  0  0  0  0  0  0  0  0
    6.3069    3.4923    0.0058 C   0  0  0  0  0  0  0  0  0  0  0  0
    7.5960    2.8708   -0.0027 C   0  0  0  0  0  0  0  0  0  0  0  0
  2  1  1  0
  3  2  1  0
  4  3  1  0
  5  4  1  0
  6 14  1  0
  7  6  1  0
  8  1  2  0
  9  1  2  0
 10  2  1  0
 11  5  1  0
 12  5  1  0
 13 11  1  0
 14 12  1  0
 15  4  2  0
 16  7  2  0
 17 10  2  0
 18 10  1  0
 19  1  1  0
 20 21  1  0
 21 18  2  0
 22 17  1  0
 23 16  1  0
 24 20  1  0
 25  7  1  0
 26 16  1  0
 27 24  1  0
 28 23  1  0
 29 27  1  0
 30 25  2  0
 31 30  1  0
 20 22  2  0
 13  6  1  0
 31 26  2  0
M  END
>  <Name>  (33) 
Molecule

>  <IDNUMBER>  (33) 
BAS 00845438

>  <Num_H_Acceptors_Lipinski>  (33) 
8

>  <Num_H_Donors_Lipinski>  (33) 
0

>  <Molecular_Weight>  (33) 
447.54776

>  <ALogP>  (33) 
2.158

>  <Num_RotatableBonds>  (33) 
8

>  <Molecular_PolarSurfaceArea>  (33) 
87.77

>  <Num_H_Acceptors>  (33) 
6

>  <Num_H_Donors>  (33) 
0

>  <ADMET_Solubility>  (33) 
-3.014

>  <ADMET_Solubility_Level>  (33) 
3

>  <ADMET_Unknown_AlogP98>  (33) 
0

>  <ADMET_BBB>  (33) 
-0.75

>  <ADMET_BBB_Level>  (33) 
3

>  <ADMET_EXT_CYP2D6>  (33) 
-16.5399152018601

>  <ADMET_EXT_CYP2D6#Prediction>  (33) 
false

>  <ADMET_EXT_CYP2D6_Applicability>  (33) 
OPS PC9 out of range. Value: 4.5464. Training min, max, SD, explained variance: -4.6974, 3.8454, 1.569, 0.0322.
Unknown FCFP_2 feature: 1018882710: [*]CS(=O)(=O)O[*]

>  <ADMET_EXT_CYP2D6_Applicability#MD>  (33) 
11.939657144817

>  <ADMET_EXT_CYP2D6_Applicability#MDpvalue>  (33) 
0.0033563704580148

>  <ADMET_EXT_Hepatotoxic>  (33) 
-6.53046823513171

>  <ADMET_EXT_Hepatotoxic#Prediction>  (33) 
false

>  <ADMET_EXT_Hepatotoxic_Applicability>  (33) 
OPS PC11 out of range. Value: 4.5952. Training min, max, SD, explained variance: -4.0074, 4.0205, 1.463, 0.0267.
Unknown FCFP_2 feature: 1018882710: [*]CS(=O)(=O)O[*]

>  <ADMET_EXT_Hepatotoxic_Applicability#MD>  (33) 
11.9345123453323

>  <ADMET_EXT_Hepatotoxic_Applicability#MDpvalue>  (33) 
0.000210998911839374

>  <ADMET_Absorption_Level>  (33) 
0

>  <ADMET_EXT_PPB>  (33) 
4.32360981031807

>  <ADMET_EXT_PPB#Prediction>  (33) 
true

>  <ADMET_EXT_PPB_Applicability>  (33) 
All properties and OPS components are within expected ranges.

>  <ADMET_EXT_PPB_Applicability#MD>  (33) 
12.5186251220766

>  <ADMET_EXT_PPB_Applicability#MDpvalue>  (33) 
0.02537825983597

>  <ADMET_AlogP98>  (33) 
2.158

>  <ADMET_PSA_2D>  (33) 
79.82

$$$$
Molecule
     RDKit          3D

 28 30  0  0  0  0  0  0  0  0999 V2000
   -3.7064    2.1974   -0.0001 O   0  0  0  0  0  0  0  0  0  0  0  0
   -2.6198    3.0194   -0.0001 C   0  0  0  0  0  0  0  0  0  0  0  0
   -2.9937    4.2343   -0.0002 N   0  0  0  0  0  0  0  0  0  0  0  0
   -4.3307    4.2651   -0.0002 N   0  0  0  0  0  0  0  0  0  0  0  0
   -4.7626    3.0692   -0.0001 C   0  0  0  0  0  0  0  0  0  0  0  0
    6.9435   -2.1647   -0.0001 C   0  0  0  0  0  0  0  0  0  0  0  0
    0.9048    0.5438    0.0000 C   0  0  0  0  0  0  0  0  0  0  0  0
   -0.8946    2.5451   -0.0001 S   0  0  0  0  0  0  0  0  0  0  0  0
    5.5256   -1.7800    0.0000 C   0  0  0  0  0  0  0  0  0  0  0  0
    1.4072   -0.7061    0.0000 N   0  0  0  0  0  0  0  0  0  0  0  0
    7.8209   -1.3009    0.0000 O   0  0  0  0  0  0  0  0  0  0  0  0
    1.6387    1.5373    0.0000 O   0  0  0  0  0  0  0  0  0  0  0  0
   -6.2585    2.7532   -0.0001 C   0  0  0  0  0  0  0  0  0  0  0  0
    4.5796   -2.7081   -0.0001 C   0  0  0  0  0  0  0  0  0  0  0  0
    5.1572   -0.3597    0.0001 C   0  0  0  0  0  0  0  0  0  0  0  0
   -0.5998    0.7557    0.0000 C   0  0  0  0  0  0  0  0  0  0  0  0
    2.8092   -1.0347    0.0000 C   0  0  0  0  0  0  0  0  0  0  0  0
    7.2902   -3.5188   -0.0002 O   0  0  0  0  0  0  0  0  0  0  0  0
    3.8701   -0.0065    0.0001 C   0  0  0  0  0  0  0  0  0  0  0  0
    3.1608   -2.3228   -0.0001 C   0  0  0  0  0  0  0  0  0  0  0  0
   -6.6692    1.2946    0.0000 C   0  0  0  0  0  0  0  0  0  0  0  0
    8.7170   -3.6506   -0.0003 C   0  0  0  0  0  0  0  0  0  0  0  0
   -8.1046    0.9784    0.0000 C   0  0  0  0  0  0  0  0  0  0  0  0
   -5.7783    0.3049    0.0001 C   0  0  0  0  0  0  0  0  0  0  0  0
    9.0956   -5.1436   -0.0005 C   0  0  0  0  0  0  0  0  0  0  0  0
   -8.5167   -0.2871    0.0001 C   0  0  0  0  0  0  0  0  0  0  0  0
   -6.2337   -1.0907    0.0002 C   0  0  0  0  0  0  0  0  0  0  0  0
   -7.5365   -1.3712    0.0002 C   0  0  0  0  0  0  0  0  0  0  0  0
  2  1  1  0
  3  2  2  0
  4  5  2  0
  5  1  1  0
  6  9  1  0
  7 16  1  0
  8  2  1  0
  9 14  2  0
 10  7  1  0
 11  6  2  0
 12  7  2  0
 13  5  1  0
 14 20  1  0
 15 19  2  0
 16  8  1  0
 17 10  1  0
 18  6  1  0
 19 17  1  0
 20 17  2  0
 21 13  1  0
 22 18  1  0
 23 21  2  0
 24 21  1  0
 25 22  1  0
 26 23  1  0
 27 24  2  0
 28 27  1  0
  3  4  1  0
 28 26  2  0
  9 15  1  0
M  END
>  <Name>  (34) 
Molecule

>  <IDNUMBER>  (34) 
BAS 01067339

>  <Num_H_Acceptors_Lipinski>  (34) 
7

>  <Num_H_Donors_Lipinski>  (34) 
1

>  <Molecular_Weight>  (34) 
397.44756

>  <ALogP>  (34) 
3.088

>  <Num_RotatableBonds>  (34) 
9

>  <Molecular_PolarSurfaceArea>  (34) 
119.61

>  <Num_H_Acceptors>  (34) 
6

>  <Num_H_Donors>  (34) 
1

>  <ADMET_Solubility>  (34) 
-3.821

>  <ADMET_Solubility_Level>  (34) 
3

>  <ADMET_Unknown_AlogP98>  (34) 
0

>  <ADMET_BBB>  (34) 
-0.646

>  <ADMET_BBB_Level>  (34) 
3

>  <ADMET_EXT_CYP2D6>  (34) 
-8.26560330062817

>  <ADMET_EXT_CYP2D6#Prediction>  (34) 
false

>  <ADMET_EXT_CYP2D6_Applicability>  (34) 
All properties and OPS components are within expected ranges.
Unknown FCFP_2 feature: -1410079687: [*]N([*])[c]1:n:[*]:[*]:n:1[*]

>  <ADMET_EXT_CYP2D6_Applicability#MD>  (34) 
15.581826638329

>  <ADMET_EXT_CYP2D6_Applicability#MDpvalue>  (34) 
4.44819904180899e-07

>  <ADMET_EXT_Hepatotoxic>  (34) 
-6.44019795849288

>  <ADMET_EXT_Hepatotoxic#Prediction>  (34) 
false

>  <ADMET_EXT_Hepatotoxic_Applicability>  (34) 
All properties and OPS components are within expected ranges.

>  <ADMET_EXT_Hepatotoxic_Applicability#MD>  (34) 
15.2614785275188

>  <ADMET_EXT_Hepatotoxic_Applicability#MDpvalue>  (34) 
5.94215779806811e-12

>  <ADMET_Absorption_Level>  (34) 
0

>  <ADMET_EXT_PPB>  (34) 
-2.39602606738064

>  <ADMET_EXT_PPB#Prediction>  (34) 
false

>  <ADMET_EXT_PPB_Applicability>  (34) 
All properties and OPS components are within expected ranges.

>  <ADMET_EXT_PPB_Applicability#MD>  (34) 
13.2456216003795

>  <ADMET_EXT_PPB_Applicability#MDpvalue>  (34) 
0.00233964719619364

>  <ADMET_AlogP98>  (34) 
3.088

>  <ADMET_PSA_2D>  (34) 
91.418

$$$$
Molecule
     RDKit          3D

 19 20  0  0  0  0  0  0  0  0999 V2000
    5.5574   -1.0957   -0.8590 S   0  0  0  0  0  0  0  0  0  0  0  0
    3.7857   -1.6178   -0.8015 C   0  0  0  0  0  0  0  0  0  0  0  0
    6.6604   -0.7831    0.1328 O   0  0  0  0  0  0  0  0  0  0  0  0
    5.5544   -2.3641   -0.0282 O   0  0  0  0  0  0  0  0  0  0  0  0
    0.6355    0.1024    0.1326 C   0  0  0  0  0  0  0  0  0  0  0  0
    4.9265    0.5848   -0.4024 C   0  0  0  0  0  0  0  0  0  0  0  0
    2.9498   -0.5682   -0.0905 C   0  0  2  0  0  0  0  0  0  0  0  0
    1.5497   -0.8574   -0.3462 O   0  0  0  0  0  0  0  0  0  0  0  0
    1.0070    1.1153    0.7366 O   0  0  0  0  0  0  0  0  0  0  0  0
    3.4475    0.6750   -0.7627 C   0  0  0  0  0  0  0  0  0  0  0  0
   -1.5522    1.0868    0.1654 O   0  0  0  0  0  0  0  0  0  0  0  0
   -0.8295   -0.1180   -0.1090 C   0  0  0  0  0  0  0  0  0  0  0  0
   -2.9350    0.8695    0.0882 C   0  0  0  0  0  0  0  0  0  0  0  0
   -5.7060    0.4707   -0.0345 C   0  0  0  0  0  0  0  0  0  0  0  0
   -3.4790   -0.4693   -0.1930 C   0  0  0  0  0  0  0  0  0  0  0  0
   -3.7690    1.8927    0.2828 C   0  0  0  0  0  0  0  0  0  0  0  0
   -4.7959   -0.6578   -0.2484 C   0  0  0  0  0  0  0  0  0  0  0  0
   -5.2165    1.6831    0.2155 C   0  0  0  0  0  0  0  0  0  0  0  0
   -7.1904    0.2594   -0.0978 C   0  0  0  0  0  0  0  0  0  0  0  0
  2  1  1  0
  3  1  2  0
  4  1  2  0
  5  8  1  0
  6  1  1  0
  7  2  1  0
  7  8  1  6
  9  5  2  0
 10  6  1  0
 11 12  1  0
 12  5  1  0
 13 11  1  0
 14 17  2  0
 15 13  2  0
 16 13  1  0
 17 15  1  0
 18 16  2  0
 19 14  1  0
 10  7  1  0
 14 18  1  0
M  END
>  <Name>  (35) 
Molecule

>  <IDNUMBER>  (35) 
BAS 01260128

>  <Num_H_Acceptors_Lipinski>  (35) 
5

>  <Num_H_Donors_Lipinski>  (35) 
0

>  <Molecular_Weight>  (35) 
284.32814

>  <ALogP>  (35) 
1.514

>  <Num_RotatableBonds>  (35) 
5

>  <Molecular_PolarSurfaceArea>  (35) 
78.05

>  <Num_H_Acceptors>  (35) 
5

>  <Num_H_Donors>  (35) 
0

>  <ADMET_Solubility>  (35) 
-2.501

>  <ADMET_Solubility_Level>  (35) 
3

>  <ADMET_Unknown_AlogP98>  (35) 
0

>  <ADMET_BBB>  (35) 
-0.79

>  <ADMET_BBB_Level>  (35) 
3

>  <ADMET_EXT_CYP2D6>  (35) 
-10.7122346302709

>  <ADMET_EXT_CYP2D6#Prediction>  (35) 
false

>  <ADMET_EXT_CYP2D6_Applicability>  (35) 
All properties and OPS components are within expected ranges.

>  <ADMET_EXT_CYP2D6_Applicability#MD>  (35) 
15.7015798415716

>  <ADMET_EXT_CYP2D6_Applicability#MDpvalue>  (35) 
3.24388763901732e-07

>  <ADMET_EXT_Hepatotoxic>  (35) 
-5.90930174396109

>  <ADMET_EXT_Hepatotoxic#Prediction>  (35) 
false

>  <ADMET_EXT_Hepatotoxic_Applicability>  (35) 
All properties and OPS components are within expected ranges.
Unknown FCFP_2 feature: 1018852919: O=S1(=O)C[*][*]C1

>  <ADMET_EXT_Hepatotoxic_Applicability#MD>  (35) 
11.6325509941167

>  <ADMET_EXT_Hepatotoxic_Applicability#MDpvalue>  (35) 
0.000685851566220894

>  <ADMET_Absorption_Level>  (35) 
0

>  <ADMET_EXT_PPB>  (35) 
-1.08190080078384

>  <ADMET_EXT_PPB#Prediction>  (35) 
true

>  <ADMET_EXT_PPB_Applicability>  (35) 
All properties and OPS components are within expected ranges.

>  <ADMET_EXT_PPB_Applicability#MD>  (35) 
13.0544380277146

>  <ADMET_EXT_PPB_Applicability#MDpvalue>  (35) 
0.00464915284662806

>  <ADMET_AlogP98>  (35) 
1.514

>  <ADMET_PSA_2D>  (35) 
69.762

$$$$
Molecule
     RDKit          3D

 15 16  0  0  0  0  0  0  0  0999 V2000
    0.5394    0.5663   -0.0909 C   0  0  0  0  0  0  0  0  0  0  0  0
    1.6472   -0.1915   -0.0183 N   0  0  0  0  0  0  0  0  0  0  0  0
    1.2980   -1.4986   -0.0258 C   0  0  0  0  0  0  0  0  0  0  0  0
   -0.6724   -0.2859   -0.3164 C   0  0  1  0  0  0  0  0  0  0  0  0
   -0.2006   -1.7069    0.0129 C   0  0  0  0  0  0  0  0  0  0  0  0
   -1.9858    0.1394    0.2193 N   0  0  0  0  0  0  0  0  0  0  0  0
    2.9963    0.3113    0.0683 N   0  0  0  0  0  0  0  0  0  0  0  0
    0.5035    1.8024   -0.0745 O   0  0  0  0  0  0  0  0  0  0  0  0
    2.0833   -2.4519    0.0336 O   0  0  0  0  0  0  0  0  0  0  0  0
   -2.4370    1.4199   -0.3200 C   0  0  0  0  0  0  0  0  0  0  0  0
   -3.0609   -0.7456   -0.2178 C   0  0  0  0  0  0  0  0  0  0  0  0
    3.2921    1.7588    0.0733 C   0  0  0  0  0  0  0  0  0  0  0  0
    4.1637   -0.5907    0.1471 C   0  0  0  0  0  0  0  0  0  0  0  0
   -3.8705    1.4983    0.2365 C   0  0  0  0  0  0  0  0  0  0  0  0
   -4.3153    0.0095    0.2734 C   0  0  0  0  0  0  0  0  0  0  0  0
  2  1  1  0
  3  2  1  0
  4  1  1  0
  5  4  1  0
  4  6  1  1
  7  2  1  0
  8  1  2  0
  9  3  2  0
 10  6  1  0
 11  6  1  0
 12  7  1  0
 13  7  1  0
 14 10  1  0
 15 11  1  0
  5  3  1  0
 15 14  1  0
M  END
>  <Name>  (36) 
Molecule

>  <IDNUMBER>  (36) 
BAS 01355905

>  <Num_H_Acceptors_Lipinski>  (36) 
5

>  <Num_H_Donors_Lipinski>  (36) 
0

>  <Molecular_Weight>  (36) 
211.26088

>  <ALogP>  (36) 
-0.386

>  <Num_RotatableBonds>  (36) 
2

>  <Molecular_PolarSurfaceArea>  (36) 
43.86

>  <Num_H_Acceptors>  (36) 
4

>  <Num_H_Donors>  (36) 
0

>  <ADMET_Solubility>  (36) 
-1.749

>  <ADMET_Solubility_Level>  (36) 
4

>  <ADMET_Unknown_AlogP98>  (36) 
2

>  <ADMET_BBB>  (36) 
-0.702

>  <ADMET_BBB_Level>  (36) 
3

>  <ADMET_EXT_CYP2D6>  (36) 
-4.37329073665216

>  <ADMET_EXT_CYP2D6#Prediction>  (36) 
false

>  <ADMET_EXT_CYP2D6_Applicability>  (36) 
All properties and OPS components are within expected ranges.

>  <ADMET_EXT_CYP2D6_Applicability#MD>  (36) 
12.9751222334458

>  <ADMET_EXT_CYP2D6_Applicability#MDpvalue>  (36) 
0.000322962826470454

>  <ADMET_EXT_Hepatotoxic>  (36) 
-5.44643858924832

>  <ADMET_EXT_Hepatotoxic#Prediction>  (36) 
false

>  <ADMET_EXT_Hepatotoxic_Applicability>  (36) 
All properties and OPS components are within expected ranges.

>  <ADMET_EXT_Hepatotoxic_Applicability#MD>  (36) 
7.97020953156619

>  <ADMET_EXT_Hepatotoxic_Applicability#MDpvalue>  (36) 
0.893838383675291

>  <ADMET_Absorption_Level>  (36) 
0

>  <ADMET_EXT_PPB>  (36) 
-2.89521433610169

>  <ADMET_EXT_PPB#Prediction>  (36) 
false

>  <ADMET_EXT_PPB_Applicability>  (36) 
All properties and OPS components are within expected ranges.

>  <ADMET_EXT_PPB_Applicability#MD>  (36) 
11.2341415670496

>  <ADMET_EXT_PPB_Applicability#MDpvalue>  (36) 
0.367669888595404

>  <ADMET_AlogP98>  (36) 
0.514

>  <ADMET_PSA_2D>  (36) 
44.659

$$$$
Molecule
     RDKit          3D

 27 28  0  0  0  0  0  0  0  0999 V2000
   -2.5418   -2.2079   -0.1417 S   0  0  0  0  0  0  0  0  0  0  0  0
   -2.6184   -0.4053   -0.0639 N   0  0  0  0  0  0  0  0  0  0  0  0
    3.7483    0.0810   -0.0063 C   0  0  0  0  0  0  0  0  0  0  0  0
   -3.9235    0.3520    0.0056 C   0  0  0  0  0  0  0  0  0  0  0  0
   -1.3250    0.3566   -0.0906 C   0  0  0  0  0  0  0  0  0  0  0  0
   -0.0393   -0.4532    0.1219 C   0  0  0  0  0  0  0  0  0  0  0  0
    2.4231   -0.6278   -0.0341 C   0  0  0  0  0  0  0  0  0  0  0  0
    3.7739    1.6265   -0.0230 C   0  0  0  0  0  0  0  0  0  0  0  0
    1.1729    0.1082   -0.1219 N   0  0  0  0  0  0  0  0  0  0  0  0
   -2.1298   -2.7244    1.2252 O   0  0  0  0  0  0  0  0  0  0  0  0
   -1.4759   -2.5969   -1.1502 O   0  0  0  0  0  0  0  0  0  0  0  0
   -4.0483    1.8869    0.0134 C   0  0  0  0  0  0  0  0  0  0  0  0
    2.6742    2.1895   -0.0413 O   0  0  0  0  0  0  0  0  0  0  0  0
   -0.1181   -1.6146    0.5188 O   0  0  0  0  0  0  0  0  0  0  0  0
   -4.0274   -3.1440   -0.6538 C   0  0  0  0  0  0  0  0  0  0  0  0
    4.9479    2.5304   -0.0149 O   0  0  0  0  0  0  0  0  0  0  0  0
   -2.7058    2.9905   -0.0406 Cl  0  0  0  0  0  0  0  0  0  0  0  0
    4.8531   -0.6750    0.0387 C   0  0  0  0  0  0  0  0  0  0  0  0
   -5.0677   -0.3290    0.0647 C   0  0  0  0  0  0  0  0  0  0  0  0
    2.4087   -1.9638   -0.0184 C   0  0  0  0  0  0  0  0  0  0  0  0
   -5.2594    2.4446    0.0664 C   0  0  0  0  0  0  0  0  0  0  0  0
    6.2999    2.0047    0.0038 C   0  0  0  0  0  0  0  0  0  0  0  0
    4.7987   -2.1274    0.0607 C   0  0  0  0  0  0  0  0  0  0  0  0
   -6.3733    0.3162    0.1216 C   0  0  0  0  0  0  0  0  0  0  0  0
    3.6274   -2.7438    0.0361 C   0  0  0  0  0  0  0  0  0  0  0  0
    7.3233    3.1540    0.0037 C   0  0  0  0  0  0  0  0  0  0  0  0
   -6.4656    1.6378    0.1192 C   0  0  0  0  0  0  0  0  0  0  0  0
  2  1  1  0
  3  7  2  0
  4  2  1  0
  5  2  1  0
  6  5  1  0
  7  9  1  0
  8  3  1  0
  9  6  1  0
 10  1  2  0
 11  1  2  0
 12  4  2  0
 13  8  2  0
 14  6  2  0
 15  1  1  0
 16  8  1  0
 17 12  1  0
 18  3  1  0
 19  4  1  0
 20  7  1  0
 21 12  1  0
 22 16  1  0
 23 25  1  0
 24 19  2  0
 25 20  2  0
 26 22  1  0
 27 24  1  0
 27 21  2  0
 23 18  2  0
M  END
>  <Name>  (37) 
Molecule

>  <IDNUMBER>  (37) 
BAS 01358922

>  <Num_H_Acceptors_Lipinski>  (37) 
7

>  <Num_H_Donors_Lipinski>  (37) 
1

>  <Molecular_Weight>  (37) 
410.87186

>  <ALogP>  (37) 
2.452

>  <Num_RotatableBonds>  (37) 
8

>  <Molecular_PolarSurfaceArea>  (37) 
101.16

>  <Num_H_Acceptors>  (37) 
5

>  <Num_H_Donors>  (37) 
1

>  <ADMET_Solubility>  (37) 
-3.555

>  <ADMET_Solubility_Level>  (37) 
3

>  <ADMET_Unknown_AlogP98>  (37) 
0

>  <ADMET_BBB>  (37) 
-0.888

>  <ADMET_BBB_Level>  (37) 
3

>  <ADMET_EXT_CYP2D6>  (37) 
-10.36044314187

>  <ADMET_EXT_CYP2D6#Prediction>  (37) 
false

>  <ADMET_EXT_CYP2D6_Applicability>  (37) 
All properties and OPS components are within expected ranges.
Unknown FCFP_2 feature: 1018882710: [*]CS(=O)(=O)O[*]

>  <ADMET_EXT_CYP2D6_Applicability#MD>  (37) 
14.1252352774123

>  <ADMET_EXT_CYP2D6_Applicability#MDpvalue>  (37) 
1.92553670485347e-05

>  <ADMET_EXT_Hepatotoxic>  (37) 
-5.28709303696331

>  <ADMET_EXT_Hepatotoxic#Prediction>  (37) 
false

>  <ADMET_EXT_Hepatotoxic_Applicability>  (37) 
All properties and OPS components are within expected ranges.
Unknown FCFP_2 feature: 1018882710: [*]CS(=O)(=O)O[*]

>  <ADMET_EXT_Hepatotoxic_Applicability#MD>  (37) 
14.849555225781

>  <ADMET_EXT_Hepatotoxic_Applicability#MDpvalue>  (37) 
7.34743013290698e-11

>  <ADMET_Absorption_Level>  (37) 
0

>  <ADMET_EXT_PPB>  (37) 
4.49349849312057

>  <ADMET_EXT_PPB#Prediction>  (37) 
true

>  <ADMET_EXT_PPB_Applicability>  (37) 
All properties and OPS components are within expected ranges.

>  <ADMET_EXT_PPB_Applicability#MD>  (37) 
12.9779788317379

>  <ADMET_EXT_PPB_Applicability#MDpvalue>  (37) 
0.00604656320441759

>  <ADMET_AlogP98>  (37) 
2.452

>  <ADMET_PSA_2D>  (37) 
94.295

$$$$
Molecule
     RDKit          3D

 22 24  0  0  0  0  0  0  0  0999 V2000
   -0.1541    0.7959   -0.0746 N   0  0  0  0  0  0  0  0  0  0  0  0
    1.0561    1.5739   -0.0945 C   0  0  0  0  0  0  0  0  0  0  0  0
    1.0147    3.0585    0.0243 C   0  0  0  0  0  0  0  0  0  0  0  0
   -0.2999    3.6043    0.0800 N   0  0  0  0  0  0  0  0  0  0  0  0
   -0.2243   -0.7123   -0.1368 C   0  0  0  0  0  0  0  0  0  0  0  0
   -1.3919    1.4838   -0.0103 C   0  0  0  0  0  0  0  0  0  0  0  0
    1.0516   -1.5840   -0.0150 C   0  0  0  0  0  0  0  0  0  0  0  0
   -1.4479    2.8182    0.0671 C   0  0  0  0  0  0  0  0  0  0  0  0
    0.9599   -2.9790    0.0364 N   0  0  0  0  0  0  0  0  0  0  0  0
    2.1694    1.0628   -0.1776 O   0  0  0  0  0  0  0  0  0  0  0  0
    2.1807   -1.1039    0.0454 O   0  0  0  0  0  0  0  0  0  0  0  0
    0.8615   -5.7577    0.2787 O   0  0  0  0  0  0  0  0  0  0  0  0
    1.8044    3.4628    1.2825 C   0  0  0  0  0  0  0  0  0  0  0  0
    1.8011    3.6711   -1.1473 C   0  0  0  0  0  0  0  0  0  0  0  0
    2.1918   -3.7308    0.1994 C   0  0  0  0  0  0  0  0  0  0  0  0
   -0.3349   -3.6366    0.0321 C   0  0  0  0  0  0  0  0  0  0  0  0
   -2.6445    0.7127   -0.0214 C   0  0  0  0  0  0  0  0  0  0  0  0
   -2.7469    3.4945    0.1272 C   0  0  0  0  0  0  0  0  0  0  0  0
    2.0539   -5.1935   -0.2532 C   0  0  0  0  0  0  0  0  0  0  0  0
   -0.2274   -5.1211   -0.3892 C   0  0  0  0  0  0  0  0  0  0  0  0
   -3.8214    1.3349    0.0327 C   0  0  0  0  0  0  0  0  0  0  0  0
   -3.8750    2.7909    0.1135 C   0  0  0  0  0  0  0  0  0  0  0  0
  2  1  1  0
  3  2  1  0
  4  3  1  0
  5  1  1  0
  6  1  1  0
  7  5  1  0
  8  6  2  0
  9  7  1  0
 10  2  2  0
 11  7  2  0
 12 19  1  0
 13  3  1  0
 14  3  1  0
 15  9  1  0
 16  9  1  0
 17  6  1  0
 18  8  1  0
 19 15  1  0
 20 16  1  0
 21 17  2  0
 22 21  1  0
  4  8  1  0
 22 18  2  0
 12 20  1  0
M  END
>  <Name>  (38) 
Molecule

>  <IDNUMBER>  (38) 
BAS 01403769

>  <Num_H_Acceptors_Lipinski>  (38) 
6

>  <Num_H_Donors_Lipinski>  (38) 
1

>  <Molecular_Weight>  (38) 
303.35624

>  <ALogP>  (38) 
0.4

>  <Num_RotatableBonds>  (38) 
2

>  <Molecular_PolarSurfaceArea>  (38) 
61.88

>  <Num_H_Acceptors>  (38) 
4

>  <Num_H_Donors>  (38) 
1

>  <ADMET_Solubility>  (38) 
-2.162

>  <ADMET_Solubility_Level>  (38) 
3

>  <ADMET_Unknown_AlogP98>  (38) 
0

>  <ADMET_BBB>  (38) 
-1.028

>  <ADMET_BBB_Level>  (38) 
3

>  <ADMET_EXT_CYP2D6>  (38) 
-7.80095387417004

>  <ADMET_EXT_CYP2D6#Prediction>  (38) 
false

>  <ADMET_EXT_CYP2D6_Applicability>  (38) 
All properties and OPS components are within expected ranges.

>  <ADMET_EXT_CYP2D6_Applicability#MD>  (38) 
10.3803312120555

>  <ADMET_EXT_CYP2D6_Applicability#MDpvalue>  (38) 
0.0651590210729809

>  <ADMET_EXT_Hepatotoxic>  (38) 
-4.69310811511547

>  <ADMET_EXT_Hepatotoxic#Prediction>  (38) 
false

>  <ADMET_EXT_Hepatotoxic_Applicability>  (38) 
All properties and OPS components are within expected ranges.

>  <ADMET_EXT_Hepatotoxic_Applicability#MD>  (38) 
10.1571306153254

>  <ADMET_EXT_Hepatotoxic_Applicability#MDpvalue>  (38) 
0.0633268048048428

>  <ADMET_Absorption_Level>  (38) 
0

>  <ADMET_EXT_PPB>  (38) 
0.571118249170696

>  <ADMET_EXT_PPB#Prediction>  (38) 
true

>  <ADMET_EXT_PPB_Applicability>  (38) 
All properties and OPS components are within expected ranges.

>  <ADMET_EXT_PPB_Applicability#MD>  (38) 
11.2633197886669

>  <ADMET_EXT_PPB_Applicability#MDpvalue>  (38) 
0.353537768794647

>  <ADMET_AlogP98>  (38) 
0.4

>  <ADMET_PSA_2D>  (38) 
63.046

$$$$
Molecule
     RDKit          3D

 18 21  0  0  0  0  0  0  0  0999 V2000
    0.4274   -0.5230   -0.1742 N   0  0  0  0  0  0  0  0  0  0  0  0
   -0.3838    0.5733   -0.4852 C   0  0  0  0  0  0  0  0  0  0  0  0
   -0.3286   -1.6588   -0.2228 C   0  0  0  0  0  0  0  0  0  0  0  0
   -1.7930    0.1596   -0.8483 C   0  0  1  0  0  0  0  0  0  0  0  0
   -1.7396   -1.4147   -0.7031 C   0  0  2  0  0  0  0  0  0  0  0  0
   -2.7256   -1.6976    0.4513 C   0  0  2  0  0  0  0  0  0  0  0  0
   -2.7821    0.5739    0.2692 C   0  0  1  0  0  0  0  0  0  0  0  0
   -4.0780   -1.2954   -0.0470 C   0  0  0  0  0  0  0  0  0  0  0  0
   -4.1125    0.0251   -0.1496 C   0  0  0  0  0  0  0  0  0  0  0  0
   -2.4042   -0.4728    1.3523 C   0  0  0  0  0  0  0  0  0  0  0  0
    1.8711   -0.5732    0.1693 C   0  0  0  0  0  0  0  0  0  0  0  0
   -0.0260    1.7526   -0.5076 O   0  0  0  0  0  0  0  0  0  0  0  0
    0.1159   -2.7828    0.0300 O   0  0  0  0  0  0  0  0  0  0  0  0
    4.1479    0.3958    0.0988 O   0  0  0  0  0  0  0  0  0  0  0  0
    2.7650    0.6722   -0.1493 C   0  0  2  0  0  0  0  0  0  0  0  0
    4.8133    1.6952    0.0300 C   0  0  0  0  0  0  0  0  0  0  0  0
    2.5528    1.8904    0.7384 C   0  0  0  0  0  0  0  0  0  0  0  0
    3.6657    2.7370    0.1504 C   0  0  0  0  0  0  0  0  0  0  0  0
  2  1  1  0
  3  1  1  0
  4  2  1  1
  5  3  1  1
  6  5  1  0
  7  4  1  0
  6  8  1  6
  7  9  1  6
 10  7  1  0
 11  1  1  0
 12  2  2  0
 13  3  2  0
 14 15  1  0
 15 11  1  1
 16 14  1  0
 17 15  1  0
 18 17  1  0
  4  5  1  0
 10  6  1  0
  9  8  2  0
 16 18  1  0
M  END
>  <Name>  (39) 
Molecule

>  <IDNUMBER>  (39) 
BAS 01416687

>  <Num_H_Acceptors_Lipinski>  (39) 
4

>  <Num_H_Donors_Lipinski>  (39) 
0

>  <Molecular_Weight>  (39) 
247.28968

>  <ALogP>  (39) 
0.469

>  <Num_RotatableBonds>  (39) 
2

>  <Molecular_PolarSurfaceArea>  (39) 
46.61

>  <Num_H_Acceptors>  (39) 
3

>  <Num_H_Donors>  (39) 
0

>  <ADMET_Solubility>  (39) 
-2.689

>  <ADMET_Solubility_Level>  (39) 
3

>  <ADMET_Unknown_AlogP98>  (39) 
0

>  <ADMET_BBB>  (39) 
-0.589

>  <ADMET_BBB_Level>  (39) 
3

>  <ADMET_EXT_CYP2D6>  (39) 
-3.56190787898742

>  <ADMET_EXT_CYP2D6#Prediction>  (39) 
false

>  <ADMET_EXT_CYP2D6_Applicability>  (39) 
All properties and OPS components are within expected ranges.

>  <ADMET_EXT_CYP2D6_Applicability#MD>  (39) 
11.3993927826872

>  <ADMET_EXT_CYP2D6_Applicability#MDpvalue>  (39) 
0.0102606730734404

>  <ADMET_EXT_Hepatotoxic>  (39) 
-8.82915687062223

>  <ADMET_EXT_Hepatotoxic#Prediction>  (39) 
false

>  <ADMET_EXT_Hepatotoxic_Applicability>  (39) 
All properties and OPS components are within expected ranges.

>  <ADMET_EXT_Hepatotoxic_Applicability#MD>  (39) 
9.07939207793284

>  <ADMET_EXT_Hepatotoxic_Applicability#MDpvalue>  (39) 
0.417338060091125

>  <ADMET_Absorption_Level>  (39) 
0

>  <ADMET_EXT_PPB>  (39) 
-2.79354868974586

>  <ADMET_EXT_PPB#Prediction>  (39) 
false

>  <ADMET_EXT_PPB_Applicability>  (39) 
All properties and OPS components are within expected ranges.

>  <ADMET_EXT_PPB_Applicability#MD>  (39) 
11.5835016716043

>  <ADMET_EXT_PPB_Applicability#MDpvalue>  (39) 
0.215713300276062

>  <ADMET_AlogP98>  (39) 
0.993

>  <ADMET_PSA_2D>  (39) 
46.884

$$$$
Molecule
     RDKit          3D

 19 20  0  0  0  0  0  0  0  0999 V2000
   -1.9994   -0.5287    0.0119 N   0  0  0  0  0  0  0  0  0  0  0  0
   -3.2182   -1.1416   -0.1395 C   0  0  0  0  0  0  0  0  0  0  0  0
   -2.2111    0.8600   -0.0022 C   0  0  0  0  0  0  0  0  0  0  0  0
   -4.2430   -0.1870   -0.2542 N   0  0  0  0  0  0  0  0  0  0  0  0
   -3.6768    1.1555   -0.1585 C   0  0  0  0  0  0  0  0  0  0  0  0
   -0.7317   -1.2762    0.1525 C   0  0  0  0  0  0  0  0  0  0  0  0
    3.0954   -0.6349   -0.2812 N   0  0  0  0  0  0  0  0  0  0  0  0
   -3.3915   -2.3605   -0.1783 O   0  0  0  0  0  0  0  0  0  0  0  0
   -1.3575    1.7419    0.1054 O   0  0  0  0  0  0  0  0  0  0  0  0
    0.5498   -0.4215   -0.0154 C   0  0  2  0  0  0  0  0  0  0  0  0
    1.8178   -1.3319    0.0971 C   0  0  0  0  0  0  0  0  0  0  0  0
    5.7630    0.3011    0.1830 O   0  0  0  0  0  0  0  0  0  0  0  0
    0.5676    0.5832    1.0066 O   0  0  0  0  0  0  0  0  0  0  0  0
   -4.2035    1.9324    1.0610 C   0  0  0  0  0  0  0  0  0  0  0  0
   -3.9294    2.0118   -1.4111 C   0  0  0  0  0  0  0  0  0  0  0  0
    4.2206   -1.5741   -0.1234 C   0  0  0  0  0  0  0  0  0  0  0  0
    3.3746    0.5749    0.5179 C   0  0  0  0  0  0  0  0  0  0  0  0
    5.5277   -0.8901   -0.5880 C   0  0  0  0  0  0  0  0  0  0  0  0
    4.6782    1.2260    0.0177 C   0  0  0  0  0  0  0  0  0  0  0  0
  2  1  1  0
  3  1  1  0
  4  2  1  0
  5  3  1  0
  6  1  1  0
  7 11  1  0
  8  2  2  0
  9  3  2  0
 10  6  1  0
 11 10  1  0
 12 18  1  0
 10 13  1  1
 14  5  1  0
 15  5  1  0
 16  7  1  0
 17  7  1  0
 18 16  1  0
 19 17  1  0
  4  5  1  0
 12 19  1  0
M  END
>  <Name>  (40) 
Molecule

>  <IDNUMBER>  (40) 
BAS 01813011

>  <Num_H_Acceptors_Lipinski>  (40) 
7

>  <Num_H_Donors_Lipinski>  (40) 
2

>  <Molecular_Weight>  (40) 
271.31284

>  <ALogP>  (40) 
-0.843

>  <Num_RotatableBonds>  (40) 
4

>  <Molecular_PolarSurfaceArea>  (40) 
82.11

>  <Num_H_Acceptors>  (40) 
5

>  <Num_H_Donors>  (40) 
2

>  <ADMET_Solubility>  (40) 
-0.935

>  <ADMET_Solubility_Level>  (40) 
4

>  <ADMET_Unknown_AlogP98>  (40) 
0

>  <ADMET_BBB>  (40) 
-1.579

>  <ADMET_BBB_Level>  (40) 
3

>  <ADMET_EXT_CYP2D6>  (40) 
-4.21384437706352

>  <ADMET_EXT_CYP2D6#Prediction>  (40) 
false

>  <ADMET_EXT_CYP2D6_Applicability>  (40) 
ALogP out of range. Value: -0.843. Training min, max, mean, SD: -0.811, 9.062, 3.2351, 1.51.

>  <ADMET_EXT_CYP2D6_Applicability#MD>  (40) 
11.7034776666681

>  <ADMET_EXT_CYP2D6_Applicability#MDpvalue>  (40) 
0.00552612508407859

>  <ADMET_EXT_Hepatotoxic>  (40) 
-7.51578797071755

>  <ADMET_EXT_Hepatotoxic#Prediction>  (40) 
false

>  <ADMET_EXT_Hepatotoxic_Applicability>  (40) 
All properties and OPS components are within expected ranges.

>  <ADMET_EXT_Hepatotoxic_Applicability#MD>  (40) 
10.2299417343913

>  <ADMET_EXT_Hepatotoxic_Applicability#MDpvalue>  (40) 
0.0533254859163065

>  <ADMET_Absorption_Level>  (40) 
0

>  <ADMET_EXT_PPB>  (40) 
-9.0628420036319

>  <ADMET_EXT_PPB#Prediction>  (40) 
false

>  <ADMET_EXT_PPB_Applicability>  (40) 
All properties and OPS components are within expected ranges.

>  <ADMET_EXT_PPB_Applicability#MD>  (40) 
11.3923276219436

>  <ADMET_EXT_PPB_Applicability#MDpvalue>  (40) 
0.293873123293887

>  <ADMET_AlogP98>  (40) 
-0.319

>  <ADMET_PSA_2D>  (40) 
83.862

$$$$
Molecule
     RDKit          3D

 24 26  0  0  0  0  0  0  0  0999 V2000
   -3.5384   -0.9039    0.0604 N   0  0  0  0  0  0  0  0  0  0  0  0
   -5.5561   -0.0530    0.1895 N   0  0  0  0  0  0  0  0  0  0  0  0
   -4.3119    0.2834    0.1712 C   0  0  0  0  0  0  0  0  0  0  0  0
   -4.4096   -1.9468    0.0220 C   0  0  0  0  0  0  0  0  0  0  0  0
    6.4276    1.6420    0.0025 C   0  0  0  0  0  0  0  0  0  0  0  0
   -5.6169   -1.4567    0.0967 C   0  0  0  0  0  0  0  0  0  0  0  0
   -2.0836   -1.0030    0.0102 C   0  0  0  0  0  0  0  0  0  0  0  0
    4.9619    1.5974    0.0355 C   0  0  0  0  0  0  0  0  0  0  0  0
    7.0098    2.7307    0.0761 O   0  0  0  0  0  0  0  0  0  0  0  0
    4.3165    0.4328   -0.0412 C   0  0  0  0  0  0  0  0  0  0  0  0
    4.2057    2.8418    0.1550 C   0  0  0  0  0  0  0  0  0  0  0  0
   -1.3989    0.3938    0.0849 C   0  0  1  0  0  0  0  0  0  0  0  0
    0.7375    1.5559    0.1438 O   0  0  0  0  0  0  0  0  0  0  0  0
    2.1523    1.5411    0.1049 C   0  0  0  0  0  0  0  0  0  0  0  0
    7.1642    0.4647   -0.1093 O   0  0  0  0  0  0  0  0  0  0  0  0
    0.1470    0.2425    0.0600 C   0  0  0  0  0  0  0  0  0  0  0  0
    2.8747    2.8158    0.1877 C   0  0  0  0  0  0  0  0  0  0  0  0
    2.8410    0.4017   -0.0048 C   0  0  0  0  0  0  0  0  0  0  0  0
   -1.7963    1.1990   -1.0306 O   0  0  0  0  0  0  0  0  0  0  0  0
   -4.1450   -3.3649   -0.0789 C   0  0  0  0  0  0  0  0  0  0  0  0
   -6.7926   -2.3038    0.0831 C   0  0  0  0  0  0  0  0  0  0  0  0
    8.5640    0.7709   -0.1175 C   0  0  0  0  0  0  0  0  0  0  0  0
   -5.2052   -4.1821   -0.0934 C   0  0  0  0  0  0  0  0  0  0  0  0
   -6.5960   -3.6245   -0.0087 C   0  0  0  0  0  0  0  0  0  0  0  0
  2  3  2  0
  3  1  1  0
  4  1  1  0
  5  8  1  0
  6  4  2  0
  7  1  1  0
  8 10  2  0
  9  5  2  0
 10 18  1  0
 11 17  2  0
 12  7  1  0
 13 16  1  0
 14 13  1  0
 15  5  1  0
 16 12  1  0
 17 14  1  0
 18 14  2  0
 12 19  1  6
 20  4  1  0
 21  6  1  0
 22 15  1  0
 23 20  2  0
 24 23  1  0
  2  6  1  0
 24 21  2  0
  8 11  1  0
M  END
>  <Name>  (41) 
Molecule

>  <IDNUMBER>  (41) 
BAS 01813444

>  <Num_H_Acceptors_Lipinski>  (41) 
6

>  <Num_H_Donors_Lipinski>  (41) 
1

>  <Molecular_Weight>  (41) 
326.34652

>  <ALogP>  (41) 
2.528

>  <Num_RotatableBonds>  (41) 
7

>  <Molecular_PolarSurfaceArea>  (41) 
73.58

>  <Num_H_Acceptors>  (41) 
5

>  <Num_H_Donors>  (41) 
1

>  <ADMET_Solubility>  (41) 
-3.276

>  <ADMET_Solubility_Level>  (41) 
3

>  <ADMET_Unknown_AlogP98>  (41) 
0

>  <ADMET_BBB>  (41) 
-0.521

>  <ADMET_BBB_Level>  (41) 
3

>  <ADMET_EXT_CYP2D6>  (41) 
-7.04312188617239

>  <ADMET_EXT_CYP2D6#Prediction>  (41) 
false

>  <ADMET_EXT_CYP2D6_Applicability>  (41) 
All properties and OPS components are within expected ranges.

>  <ADMET_EXT_CYP2D6_Applicability#MD>  (41) 
16.2522748197781

>  <ADMET_EXT_CYP2D6_Applicability#MDpvalue>  (41) 
7.54127283305675e-08

>  <ADMET_EXT_Hepatotoxic>  (41) 
-7.17395503544915

>  <ADMET_EXT_Hepatotoxic#Prediction>  (41) 
false

>  <ADMET_EXT_Hepatotoxic_Applicability>  (41) 
All properties and OPS components are within expected ranges.

>  <ADMET_EXT_Hepatotoxic_Applicability#MD>  (41) 
13.0973797177015

>  <ADMET_EXT_Hepatotoxic_Applicability#MDpvalue>  (41) 
1.12407649167146e-06

>  <ADMET_Absorption_Level>  (41) 
0

>  <ADMET_EXT_PPB>  (41) 
0.989632438914017

>  <ADMET_EXT_PPB#Prediction>  (41) 
true

>  <ADMET_EXT_PPB_Applicability>  (41) 
OPS PC38 out of range. Value: 3.8617. Training min, max, SD, explained variance: -3.1225, 3.1535, 0.9373, 0.0073.

>  <ADMET_EXT_PPB_Applicability#MD>  (41) 
13.6033650187903

>  <ADMET_EXT_PPB_Applicability#MDpvalue>  (41) 
0.000578986133808629

>  <ADMET_AlogP98>  (41) 
2.528

>  <ADMET_PSA_2D>  (41) 
72.585

$$$$
Molecule
     RDKit          3D

 17 17  0  0  0  0  0  0  0  0999 V2000
    0.4307    1.6272   -0.0001 C   0  0  0  0  0  0  0  0  0  0  0  0
    1.7907    0.9886    0.0000 N   0  0  0  0  0  0  0  0  0  0  0  0
   -0.9129    0.8429   -0.0002 C   0  0  0  0  0  0  0  0  0  0  0  0
    0.3118    2.8549   -0.0001 O   0  0  0  0  0  0  0  0  0  0  0  0
   -0.8168   -0.5842    0.0003 O   0  0  0  0  0  0  0  0  0  0  0  0
   -2.0675   -1.2032    0.0002 C   0  0  0  0  0  0  0  0  0  0  0  0
    4.3251    3.8415    0.0007 O   0  0  0  0  0  0  0  0  0  0  0  0
    3.4368   -2.3570    0.0002 O   0  0  0  0  0  0  0  0  0  0  0  0
    1.9274   -0.4624    0.0000 C   0  0  0  0  0  0  0  0  0  0  0  0
    3.0730    1.7601    0.0001 C   0  0  0  0  0  0  0  0  0  0  0  0
    3.3985   -0.9272    0.0003 C   0  0  0  0  0  0  0  0  0  0  0  0
    3.0005    3.3043    0.0006 C   0  0  0  0  0  0  0  0  0  0  0  0
   -3.3061   -0.4106   -0.0004 C   0  0  0  0  0  0  0  0  0  0  0  0
   -2.1303   -2.5314    0.0006 C   0  0  0  0  0  0  0  0  0  0  0  0
   -4.4876   -1.0279   -0.0005 C   0  0  0  0  0  0  0  0  0  0  0  0
   -3.4272   -3.2080    0.0004 C   0  0  0  0  0  0  0  0  0  0  0  0
   -4.5504   -2.4921   -0.0001 C   0  0  0  0  0  0  0  0  0  0  0  0
  2  1  1  0
  3  1  1  0
  4  1  2  0
  5  3  1  0
  6  5  1  0
  7 12  1  0
  8 11  1  0
  9  2  1  0
 10  2  1  0
 11  9  1  0
 12 10  1  0
 13  6  2  0
 14  6  1  0
 15 13  1  0
 16 14  2  0
 17 16  1  0
 17 15  2  0
M  END
>  <Name>  (42) 
Molecule

>  <IDNUMBER>  (42) 
BAS 01922692

>  <Num_H_Acceptors_Lipinski>  (42) 
5

>  <Num_H_Donors_Lipinski>  (42) 
2

>  <Molecular_Weight>  (42) 
239.26768

>  <ALogP>  (42) 
0

>  <Num_RotatableBonds>  (42) 
7

>  <Molecular_PolarSurfaceArea>  (42) 
70

>  <Num_H_Acceptors>  (42) 
4

>  <Num_H_Donors>  (42) 
2

>  <ADMET_Solubility>  (42) 
0.243

>  <ADMET_Solubility_Level>  (42) 
5

>  <ADMET_Unknown_AlogP98>  (42) 
0

>  <ADMET_BBB>  (42) 
-1.281

>  <ADMET_BBB_Level>  (42) 
3

>  <ADMET_EXT_CYP2D6>  (42) 
-7.85827938597716

>  <ADMET_EXT_CYP2D6#Prediction>  (42) 
false

>  <ADMET_EXT_CYP2D6_Applicability>  (42) 
All properties and OPS components are within expected ranges.

>  <ADMET_EXT_CYP2D6_Applicability#MD>  (42) 
12.7635836465305

>  <ADMET_EXT_CYP2D6_Applicability#MDpvalue>  (42) 
0.000530489247201636

>  <ADMET_EXT_Hepatotoxic>  (42) 
-5.62774402137484

>  <ADMET_EXT_Hepatotoxic#Prediction>  (42) 
false

>  <ADMET_EXT_Hepatotoxic_Applicability>  (42) 
All properties and OPS components are within expected ranges.

>  <ADMET_EXT_Hepatotoxic_Applicability#MD>  (42) 
10.825462295325

>  <ADMET_EXT_Hepatotoxic_Applicability#MDpvalue>  (42) 
0.0106376560930598

>  <ADMET_Absorption_Level>  (42) 
0

>  <ADMET_EXT_PPB>  (42) 
-6.10067126287396

>  <ADMET_EXT_PPB#Prediction>  (42) 
false

>  <ADMET_EXT_PPB_Applicability>  (42) 
All properties and OPS components are within expected ranges.

>  <ADMET_EXT_PPB_Applicability#MD>  (42) 
11.1363924562474

>  <ADMET_EXT_PPB_Applicability#MDpvalue>  (42) 
0.416376938199756

>  <ADMET_AlogP98>  (42) 
0

>  <ADMET_PSA_2D>  (42) 
71.214

$$$$
Molecule
     RDKit          3D

 25 27  0  0  0  0  0  0  0  0999 V2000
    3.1166   -1.4923    0.0001 C   0  0  0  0  0  0  0  0  0  0  0  0
    3.0244   -0.1838    0.0000 C   0  0  0  0  0  0  0  0  0  0  0  0
    4.3709   -2.2157    0.0002 N   0  0  0  0  0  0  0  0  0  0  0  0
    5.6074   -0.0786   -0.0004 N   0  0  0  0  0  0  0  0  0  0  0  0
    5.6107   -1.5046   -0.0001 C   0  0  0  0  0  0  0  0  0  0  0  0
    4.3262    0.6492   -0.0002 C   0  0  0  0  0  0  0  0  0  0  0  0
    1.8014   -2.0509    0.0002 N   0  0  0  0  0  0  0  0  0  0  0  0
    1.5077    0.1176    0.0000 N   0  0  0  0  0  0  0  0  0  0  0  0
    0.8948   -1.1213    0.0001 C   0  0  0  0  0  0  0  0  0  0  0  0
   -0.8416    2.2023    0.0005 C   0  0  0  0  0  0  0  0  0  0  0  0
    0.7818    1.4920    0.0004 C   0  0  0  0  0  0  0  0  0  0  0  0
   -9.2616   -1.0233   -0.0004 N   0  0  0  0  0  0  0  0  0  0  0  0
    6.6877   -2.1277   -0.0001 O   0  0  0  0  0  0  0  0  0  0  0  0
    4.3273    1.8854   -0.0004 O   0  0  0  0  0  0  0  0  0  0  0  0
   -8.1862   -0.5817   -0.0005 C   0  0  0  0  0  0  0  0  0  0  0  0
   -2.3483    2.0119    0.0003 N   0  0  0  0  0  0  0  0  0  0  0  0
   -0.6126    3.4207    0.0011 O   0  0  0  0  0  0  0  0  0  0  0  0
    4.3807   -3.6585    0.0005 C   0  0  0  0  0  0  0  0  0  0  0  0
    6.8807    0.6311   -0.0008 C   0  0  0  0  0  0  0  0  0  0  0  0
   -6.7443    0.0161   -0.0006 C   0  0  0  0  0  0  0  0  0  0  0  0
   -3.8656    1.1410   -0.0003 C   0  0  0  0  0  0  0  0  0  0  0  0
   -6.4930    1.4832   -0.0005 C   0  0  0  0  0  0  0  0  0  0  0  0
   -5.6390   -0.7662   -0.0007 C   0  0  0  0  0  0  0  0  0  0  0  0
   -5.2224    1.9976   -0.0003 C   0  0  0  0  0  0  0  0  0  0  0  0
   -4.1186   -0.1895   -0.0005 C   0  0  0  0  0  0  0  0  0  0  0  0
  2  1  2  0
  3  1  1  0
  4  5  1  0
  5  3  1  0
  6  2  1  0
  7  1  1  0
  8  2  1  0
  9  7  2  0
 10 11  1  0
 11  8  1  0
 12 15  3  0
 13  5  2  0
 14  6  2  0
 15 20  1  0
 16 10  1  0
 17 10  2  0
 18  3  1  0
 19  4  1  0
 20 22  2  0
 21 16  1  0
 22 24  1  0
 23 25  2  0
 24 21  2  0
 25 21  1  0
  9  8  1  0
  4  6  1  0
 20 23  1  0
M  END
>  <Name>  (43) 
Molecule

>  <IDNUMBER>  (43) 
BAS 01936899

>  <Num_H_Acceptors_Lipinski>  (43) 
9

>  <Num_H_Donors_Lipinski>  (43) 
1

>  <Molecular_Weight>  (43) 
338.32076

>  <ALogP>  (43) 
0.415

>  <Num_RotatableBonds>  (43) 
3

>  <Molecular_PolarSurfaceArea>  (43) 
111.32

>  <Num_H_Acceptors>  (43) 
5

>  <Num_H_Donors>  (43) 
1

>  <ADMET_Solubility>  (43) 
-2.63

>  <ADMET_Solubility_Level>  (43) 
3

>  <ADMET_Unknown_AlogP98>  (43) 
0

>  <ADMET_BBB>  (43) 
-1.619

>  <ADMET_BBB_Level>  (43) 
3

>  <ADMET_EXT_CYP2D6>  (43) 
-13.5221534384146

>  <ADMET_EXT_CYP2D6#Prediction>  (43) 
false

>  <ADMET_EXT_CYP2D6_Applicability>  (43) 
All properties and OPS components are within expected ranges.
Unknown FCFP_2 feature: 901925800: [*]:[c](:[*])C#N

>  <ADMET_EXT_CYP2D6_Applicability#MD>  (43) 
12.3312381000282

>  <ADMET_EXT_CYP2D6_Applicability#MDpvalue>  (43) 
0.00142332982630017

>  <ADMET_EXT_Hepatotoxic>  (43) 
-9.01847974623885

>  <ADMET_EXT_Hepatotoxic#Prediction>  (43) 
false

>  <ADMET_EXT_Hepatotoxic_Applicability>  (43) 
All properties and OPS components are within expected ranges.
Unknown FCFP_2 feature: 901925800: [*]:[c](:[*])C#N

>  <ADMET_EXT_Hepatotoxic_Applicability#MD>  (43) 
10.504520897624

>  <ADMET_EXT_Hepatotoxic_Applicability#MDpvalue>  (43) 
0.02653146988285

>  <ADMET_Absorption_Level>  (43) 
0

>  <ADMET_EXT_PPB>  (43) 
-16.4620747246802

>  <ADMET_EXT_PPB#Prediction>  (43) 
false

>  <ADMET_EXT_PPB_Applicability>  (43) 
All properties and OPS components are within expected ranges.

>  <ADMET_EXT_PPB_Applicability#MD>  (43) 
12.8589496815934

>  <ADMET_EXT_PPB_Applicability#MDpvalue>  (43) 
0.00898048242105595

>  <ADMET_AlogP98>  (43) 
0.939

>  <ADMET_PSA_2D>  (43) 
110.961

$$$$
Molecule
     RDKit          3D

 14 14  0  0  0  0  0  0  0  0999 V2000
   -1.1161   -3.1692   -0.1850 C   0  0  0  0  0  0  0  0  0  0  0  0
    0.1819   -0.7986    0.2294 C   0  0  0  0  0  0  0  0  0  0  0  0
    0.1699   -3.1932    0.3608 N   0  0  0  0  0  0  0  0  0  0  0  0
   -1.4910   -2.0460   -0.9520 N   0  0  0  0  0  0  0  0  0  0  0  0
    0.9541   -2.0592    0.3985 N   0  0  0  0  0  0  0  0  0  0  0  0
   -0.7279   -0.8765   -0.9481 N   0  0  0  0  0  0  0  0  0  0  0  0
    1.2275    0.3357    0.0521 C   0  0  0  0  0  0  0  0  0  0  0  0
    0.6663    1.7279   -0.1270 C   0  0  0  0  0  0  0  0  0  0  0  0
   -2.0126   -4.4469   -0.1396 S   0  0  0  0  0  0  0  0  0  0  0  0
   -0.5478    1.9298   -0.2590 O   0  0  0  0  0  0  0  0  0  0  0  0
    1.5696    2.7940   -0.1409 O   0  0  0  0  0  0  0  0  0  0  0  0
   -0.6459   -0.5103    1.5323 C   0  0  0  0  0  0  0  0  0  0  0  0
    0.9084    4.0444   -0.3088 C   0  0  0  0  0  0  0  0  0  0  0  0
    1.9671    5.1663   -0.2796 C   0  0  0  0  0  0  0  0  0  0  0  0
  2  5  1  0
  3  1  1  0
  4  1  1  0
  5  3  1  0
  6  4  1  0
  7  2  1  0
  8  7  1  0
  9  1  2  0
 10  8  2  0
 11  8  1  0
 12  2  1  0
 13 11  1  0
 14 13  1  0
  6  2  1  0
M  END
>  <Name>  (44) 
Molecule

>  <IDNUMBER>  (44) 
BAS 01967879

>  <Num_H_Acceptors_Lipinski>  (44) 
6

>  <Num_H_Donors_Lipinski>  (44) 
4

>  <Molecular_Weight>  (44) 
218.27666

>  <ALogP>  (44) 
-0.208

>  <Num_RotatableBonds>  (44) 
4

>  <Molecular_PolarSurfaceArea>  (44) 
106.51

>  <Num_H_Acceptors>  (44) 
5

>  <Num_H_Donors>  (44) 
4

>  <ADMET_Solubility>  (44) 
-1.935

>  <ADMET_Solubility_Level>  (44) 
4

>  <ADMET_Unknown_AlogP98>  (44) 
2

>  <ADMET_BBB>  (44) 
-1.28

>  <ADMET_BBB_Level>  (44) 
3

>  <ADMET_EXT_CYP2D6>  (44) 
-7.78290866212578

>  <ADMET_EXT_CYP2D6#Prediction>  (44) 
false

>  <ADMET_EXT_CYP2D6_Applicability>  (44) 
All properties and OPS components are within expected ranges.
Unknown FCFP_2 feature: 518307157: [*]CC(C[*])(N[*])N[*]

>  <ADMET_EXT_CYP2D6_Applicability#MD>  (44) 
14.6758054625082

>  <ADMET_EXT_CYP2D6_Applicability#MDpvalue>  (44) 
4.72400600358115e-06

>  <ADMET_EXT_Hepatotoxic>  (44) 
-6.81341209095381

>  <ADMET_EXT_Hepatotoxic#Prediction>  (44) 
false

>  <ADMET_EXT_Hepatotoxic_Applicability>  (44) 
All properties and OPS components are within expected ranges.
Unknown FCFP_2 feature: -885461129: [*]NNC(=[*])[*]

>  <ADMET_EXT_Hepatotoxic_Applicability#MD>  (44) 
8.97701222456988

>  <ADMET_EXT_Hepatotoxic_Applicability#MDpvalue>  (44) 
0.468619246492827

>  <ADMET_Absorption_Level>  (44) 
0

>  <ADMET_EXT_PPB>  (44) 
-5.34982913283537

>  <ADMET_EXT_PPB#Prediction>  (44) 
false

>  <ADMET_EXT_PPB_Applicability>  (44) 
All properties and OPS components are within expected ranges.
Unknown FCFP_2 feature: 518307157: [*]CC(C[*])(N[*])N[*]

>  <ADMET_EXT_PPB_Applicability#MD>  (44) 
11.8387691245416

>  <ADMET_EXT_PPB_Applicability#MDpvalue>  (44) 
0.133475784489667

>  <ADMET_AlogP98>  (44) 
0.323

>  <ADMET_PSA_2D>  (44) 
77.471

$$$$
Molecule
     RDKit          3D

 36 39  0  0  0  0  0  0  0  0999 V2000
   -4.6725   -0.2209    0.0046 C   0  0  0  0  0  0  0  0  0  0  0  0
   -3.1847   -0.3115    0.0090 C   0  0  0  0  0  0  0  0  0  0  0  0
   -2.8853   -1.7505    0.0030 C   0  0  0  0  0  0  0  0  0  0  0  0
   -4.1012   -2.4583   -0.0015 N   0  0  0  0  0  0  0  0  0  0  0  0
   -5.1901   -1.4722   -0.0019 C   0  0  0  0  0  0  0  0  0  0  0  0
   -5.4654    1.0637    0.0058 C   0  0  0  0  0  0  0  0  0  0  0  0
   -2.3444    0.7620    0.0183 C   0  0  0  0  0  0  0  0  0  0  0  0
   -4.1816   -3.9330   -0.0026 C   0  0  0  0  0  0  0  0  0  0  0  0
   -1.7687   -2.2675    0.0063 O   0  0  0  0  0  0  0  0  0  0  0  0
    5.5756    2.1365   -0.0419 C   0  0  0  0  0  0  0  0  0  0  0  0
    6.4242    3.1683    0.0377 N   0  0  0  0  0  0  0  0  0  0  0  0
   -4.8753    2.1507    0.0106 O   0  0  0  0  0  0  0  0  0  0  0  0
    6.0301    0.9971   -0.1971 O   0  0  0  0  0  0  0  0  0  0  0  0
   10.1041    3.9029    0.1622 O   0  0  0  0  0  0  0  0  0  0  0  0
   -0.8016    0.8166    0.0185 C   0  0  0  0  0  0  0  0  0  0  0  0
   -5.3413   -4.5961   -0.0034 C   0  0  0  0  0  0  0  0  0  0  0  0
   -2.9372   -4.7259   -0.0016 C   0  0  0  0  0  0  0  0  0  0  0  0
    3.4608    1.0143   -0.0021 O   0  0  0  0  0  0  0  0  0  0  0  0
   -6.6827   -1.7726   -0.0085 C   0  0  0  0  0  0  0  0  0  0  0  0
    4.0650    2.3269    0.0545 C   0  0  0  0  0  0  0  0  0  0  0  0
    2.0372    0.9960    0.0109 C   0  0  0  0  0  0  0  0  0  0  0  0
   -6.8705    1.0629    0.0003 O   0  0  0  0  0  0  0  0  0  0  0  0
   -4.2487   -6.7553   -0.0021 C   0  0  0  0  0  0  0  0  0  0  0  0
    7.8485    2.9081   -0.0706 C   0  0  0  0  0  0  0  0  0  0  0  0
   -2.9702   -6.0570   -0.0013 C   0  0  0  0  0  0  0  0  0  0  0  0
   -5.3808   -6.0589   -0.0032 C   0  0  0  0  0  0  0  0  0  0  0  0
    8.6958    4.1480    0.3115 C   0  0  2  0  0  0  0  0  0  0  0  0
   -4.2836   -8.0953   -0.0017 F   0  0  0  0  0  0  0  0  0  0  0  0
   -0.0365   -0.2706   -0.0299 C   0  0  0  0  0  0  0  0  0  0  0  0
   -0.1202    2.1384    0.0689 C   0  0  0  0  0  0  0  0  0  0  0  0
    1.4238   -0.1831   -0.0344 C   0  0  0  0  0  0  0  0  0  0  0  0
    1.2194    2.2235    0.0663 C   0  0  0  0  0  0  0  0  0  0  0  0
   10.7263    5.2284    0.1826 C   0  0  0  0  0  0  0  0  0  0  0  0
   -7.3790    2.3985    0.0018 C   0  0  0  0  0  0  0  0  0  0  0  0
    8.4752    5.3399   -0.5919 C   0  0  0  0  0  0  0  0  0  0  0  0
    9.5434    6.2281    0.0249 C   0  0  0  0  0  0  0  0  0  0  0  0
  2  1  1  0
  3  2  1  0
  4  5  1  0
  5  1  2  0
  6  1  1  0
  7  2  2  0
  8  4  1  0
  9  3  2  0
 10 20  1  0
 11 10  1  0
 12  6  2  0
 13 10  2  0
 14 27  1  0
 15  7  1  0
 16  8  2  0
 17  8  1  0
 18 21  1  0
 19  5  1  0
 20 18  1  0
 21 31  2  0
 22  6  1  0
 23 25  1  0
 24 11  1  0
 25 17  2  0
 26 16  1  0
 27 24  1  6
 28 23  1  0
 29 15  2  0
 30 15  1  0
 31 29  1  0
 32 30  2  0
 33 14  1  0
 34 22  1  0
 35 27  1  0
 36 35  1  0
  4  3  1  0
 23 26  2  0
 21 32  1  0
 33 36  1  0
M  END
>  <Name>  (45) 
Molecule

>  <IDNUMBER>  (45) 
BAS 02114148

>  <Num_H_Acceptors_Lipinski>  (45) 
8

>  <Num_H_Donors_Lipinski>  (45) 
1

>  <Molecular_Weight>  (45) 
494.51148

>  <ALogP>  (45) 
2.874

>  <Num_RotatableBonds>  (45) 
9

>  <Molecular_PolarSurfaceArea>  (45) 
94.17

>  <Num_H_Acceptors>  (45) 
6

>  <Num_H_Donors>  (45) 
1

>  <ADMET_Solubility>  (45) 
-3.682

>  <ADMET_Solubility_Level>  (45) 
3

>  <ADMET_Unknown_AlogP98>  (45) 
0

>  <ADMET_BBB>  (45) 
-0.767

>  <ADMET_BBB_Level>  (45) 
3

>  <ADMET_EXT_CYP2D6>  (45) 
-6.94505928548488

>  <ADMET_EXT_CYP2D6#Prediction>  (45) 
false

>  <ADMET_EXT_CYP2D6_Applicability>  (45) 
All properties and OPS components are within expected ranges.

>  <ADMET_EXT_CYP2D6_Applicability#MD>  (45) 
13.2956849932416

>  <ADMET_EXT_CYP2D6_Applicability#MDpvalue>  (45) 
0.000150017227514074

>  <ADMET_EXT_Hepatotoxic>  (45) 
-6.84148558141394

>  <ADMET_EXT_Hepatotoxic#Prediction>  (45) 
false

>  <ADMET_EXT_Hepatotoxic_Applicability>  (45) 
All properties and OPS components are within expected ranges.

>  <ADMET_EXT_Hepatotoxic_Applicability#MD>  (45) 
14.2128117181322

>  <ADMET_EXT_Hepatotoxic_Applicability#MDpvalue>  (45) 
3.01202858740853e-09

>  <ADMET_Absorption_Level>  (45) 
0

>  <ADMET_EXT_PPB>  (45) 
1.79611667301946

>  <ADMET_EXT_PPB#Prediction>  (45) 
true

>  <ADMET_EXT_PPB_Applicability>  (45) 
All properties and OPS components are within expected ranges.

>  <ADMET_EXT_PPB_Applicability#MD>  (45) 
15.3607511483628

>  <ADMET_EXT_PPB_Applicability#MDpvalue>  (45) 
8.51156382722364e-08

>  <ADMET_AlogP98>  (45) 
2.874

>  <ADMET_PSA_2D>  (45) 
94.855

$$$$
Molecule
     RDKit          3D

 21 22  0  0  0  0  0  0  0  0999 V2000
   -0.6927   -2.3505   -0.1051 S   0  0  0  0  0  0  0  0  0  0  0  0
   -0.8476   -0.5708   -0.0334 N   0  0  0  0  0  0  0  0  0  0  0  0
    0.3778    0.2801    0.0212 C   0  0  0  0  0  0  0  0  0  0  0  0
    1.7378   -0.4461    0.0427 C   0  0  0  0  0  0  0  0  0  0  0  0
    2.9406    0.2688    0.0970 N   0  0  0  0  0  0  0  0  0  0  0  0
    0.0453   -2.8069    1.1403 O   0  0  0  0  0  0  0  0  0  0  0  0
    0.1412   -2.7012   -1.3239 O   0  0  0  0  0  0  0  0  0  0  0  0
   -2.1177    0.1498   -0.0175 C   0  0  0  0  0  0  0  0  0  0  0  0
    1.8172   -1.6735    0.0181 O   0  0  0  0  0  0  0  0  0  0  0  0
    5.3803    1.6160    0.2880 O   0  0  0  0  0  0  0  0  0  0  0  0
   -2.0945    1.6237    0.0574 C   0  0  0  0  0  0  0  0  0  0  0  0
   -3.3009   -0.4573   -0.0662 C   0  0  0  0  0  0  0  0  0  0  0  0
   -2.2088   -3.3597   -0.2099 C   0  0  0  0  0  0  0  0  0  0  0  0
   -4.5495    0.2990   -0.0476 C   0  0  0  0  0  0  0  0  0  0  0  0
   -3.2332    2.3198    0.0754 C   0  0  0  0  0  0  0  0  0  0  0  0
   -4.5199    1.6252    0.0202 C   0  0  0  0  0  0  0  0  0  0  0  0
    2.9371    1.7185    0.1745 C   0  0  0  0  0  0  0  0  0  0  0  0
    4.1777   -0.4896    0.1668 C   0  0  0  0  0  0  0  0  0  0  0  0
    4.2835    2.3231   -0.2905 C   0  0  0  0  0  0  0  0  0  0  0  0
    5.3951    0.3233   -0.3060 C   0  0  0  0  0  0  0  0  0  0  0  0
   -5.8045    2.4026    0.0396 C   0  0  0  0  0  0  0  0  0  0  0  0
  2  1  1  0
  3  2  1  0
  4  3  1  0
  5  4  1  0
  6  1  2  0
  7  1  2  0
  8  2  1  0
  9  4  2  0
 10 19  1  0
 11  8  2  0
 12  8  1  0
 13  1  1  0
 14 12  2  0
 15 11  1  0
 16 14  1  0
 17  5  1  0
 18  5  1  0
 19 17  1  0
 20 18  1  0
 21 16  1  0
 16 15  2  0
 10 20  1  0
M  END
>  <Name>  (46) 
Molecule

>  <IDNUMBER>  (46) 
BAS 02177208

>  <Num_H_Acceptors_Lipinski>  (46) 
6

>  <Num_H_Donors_Lipinski>  (46) 
0

>  <Molecular_Weight>  (46) 
312.3846

>  <ALogP>  (46) 
0.386

>  <Num_RotatableBonds>  (46) 
4

>  <Molecular_PolarSurfaceArea>  (46) 
75.3

>  <Num_H_Acceptors>  (46) 
4

>  <Num_H_Donors>  (46) 
0

>  <ADMET_Solubility>  (46) 
-1.692

>  <ADMET_Solubility_Level>  (46) 
4

>  <ADMET_Unknown_AlogP98>  (46) 
0

>  <ADMET_BBB>  (46) 
-1.103

>  <ADMET_BBB_Level>  (46) 
3

>  <ADMET_EXT_CYP2D6>  (46) 
-13.0628111906014

>  <ADMET_EXT_CYP2D6#Prediction>  (46) 
false

>  <ADMET_EXT_CYP2D6_Applicability>  (46) 
All properties and OPS components are within expected ranges.
Unknown FCFP_2 feature: 1018882710: [*]CS(=O)(=O)O[*]

>  <ADMET_EXT_CYP2D6_Applicability#MD>  (46) 
12.8461992476543

>  <ADMET_EXT_CYP2D6_Applicability#MDpvalue>  (46) 
0.000437450428706382

>  <ADMET_EXT_Hepatotoxic>  (46) 
-5.2251306871583

>  <ADMET_EXT_Hepatotoxic#Prediction>  (46) 
false

>  <ADMET_EXT_Hepatotoxic_Applicability>  (46) 
All properties and OPS components are within expected ranges.
Unknown FCFP_2 feature: 1018882710: [*]CS(=O)(=O)O[*]

>  <ADMET_EXT_Hepatotoxic_Applicability#MD>  (46) 
9.81972501948892

>  <ADMET_EXT_Hepatotoxic_Applicability#MDpvalue>  (46) 
0.130516273658216

>  <ADMET_Absorption_Level>  (46) 
0

>  <ADMET_EXT_PPB>  (46) 
-0.202357609398578

>  <ADMET_EXT_PPB#Prediction>  (46) 
true

>  <ADMET_EXT_PPB_Applicability>  (46) 
OPS PC31 out of range. Value: 3.1471. Training min, max, SD, explained variance: -5.2251, 3.1286, 1.044, 0.0090.

>  <ADMET_EXT_PPB_Applicability#MD>  (46) 
11.7802685528434

>  <ADMET_EXT_PPB_Applicability#MDpvalue>  (46) 
0.150022914096955

>  <ADMET_AlogP98>  (46) 
0.386

>  <ADMET_PSA_2D>  (46) 
67.537

$$$$
Molecule
     RDKit          3D

 25 26  0  0  0  0  0  0  0  0999 V2000
   -1.4309   -1.8961    0.0028 S   0  0  0  0  0  0  0  0  0  0  0  0
   -1.5103   -0.0967   -0.0174 N   0  0  0  0  0  0  0  0  0  0  0  0
   -0.2443    0.7284    0.0180 C   0  0  0  0  0  0  0  0  0  0  0  0
    1.0849   -0.0524   -0.0089 C   0  0  0  0  0  0  0  0  0  0  0  0
   -2.7593    0.6625   -0.0187 C   0  0  0  0  0  0  0  0  0  0  0  0
    2.2702    0.6050    0.0845 N   0  0  0  0  0  0  0  0  0  0  0  0
   -4.0696    0.0229    0.0847 C   0  0  0  0  0  0  0  0  0  0  0  0
   -0.5936   -2.3667   -1.1724 O   0  0  0  0  0  0  0  0  0  0  0  0
   -0.7520   -2.3157    1.2938 O   0  0  0  0  0  0  0  0  0  0  0  0
    3.5615   -0.0812    0.0574 C   0  0  0  0  0  0  0  0  0  0  0  0
    1.0690   -1.2643   -0.1322 O   0  0  0  0  0  0  0  0  0  0  0  0
    4.8037    0.7191    0.0377 C   0  0  0  0  0  0  0  0  0  0  0  0
   -2.9784   -2.8524   -0.1296 C   0  0  0  0  0  0  0  0  0  0  0  0
   -5.1982    0.7224    0.0833 C   0  0  0  0  0  0  0  0  0  0  0  0
   -2.7145    1.9918   -0.1112 C   0  0  0  0  0  0  0  0  0  0  0  0
   -6.4202    0.0353    0.1866 O   0  0  0  0  0  0  0  0  0  0  0  0
   -3.9586    2.7853   -0.1168 C   0  0  0  0  0  0  0  0  0  0  0  0
    3.6545   -1.4044    0.0403 C   0  0  0  0  0  0  0  0  0  0  0  0
    4.7531    2.2183    0.0553 C   0  0  0  0  0  0  0  0  0  0  0  0
    5.9914    0.0938   -0.0026 C   0  0  0  0  0  0  0  0  0  0  0  0
   -5.1422    2.1793   -0.0249 C   0  0  0  0  0  0  0  0  0  0  0  0
   -7.5318    0.9354    0.1674 C   0  0  0  0  0  0  0  0  0  0  0  0
    6.1833    2.8023   -0.0031 C   0  0  0  0  0  0  0  0  0  0  0  0
    4.9473   -2.0809    0.0009 C   0  0  0  0  0  0  0  0  0  0  0  0
    6.0645   -1.3625   -0.0220 C   0  0  0  0  0  0  0  0  0  0  0  0
  2  1  1  0
  3  2  1  0
  4  3  1  0
  5  2  1  0
  6  4  1  0
  7  5  2  0
  8  1  2  0
  9  1  2  0
 10  6  1  0
 11  4  2  0
 12 10  2  0
 13  1  1  0
 14  7  1  0
 15  5  1  0
 16 14  1  0
 17 15  2  0
 18 10  1  0
 19 12  1  0
 20 12  1  0
 21 17  1  0
 22 16  1  0
 23 19  1  0
 24 18  2  0
 25 24  1  0
 21 14  2  0
 25 20  2  0
M  END
>  <Name>  (47) 
Molecule

>  <IDNUMBER>  (47) 
BAS 02177338

>  <Num_H_Acceptors_Lipinski>  (47) 
6

>  <Num_H_Donors_Lipinski>  (47) 
1

>  <Molecular_Weight>  (47) 
362.44328

>  <ALogP>  (47) 
2.509

>  <Num_RotatableBonds>  (47) 
7

>  <Molecular_PolarSurfaceArea>  (47) 
84.09

>  <Num_H_Acceptors>  (47) 
4

>  <Num_H_Donors>  (47) 
1

>  <ADMET_Solubility>  (47) 
-3.48

>  <ADMET_Solubility_Level>  (47) 
3

>  <ADMET_Unknown_AlogP98>  (47) 
0

>  <ADMET_BBB>  (47) 
-0.597

>  <ADMET_BBB_Level>  (47) 
3

>  <ADMET_EXT_CYP2D6>  (47) 
-9.66623791796982

>  <ADMET_EXT_CYP2D6#Prediction>  (47) 
false

>  <ADMET_EXT_CYP2D6_Applicability>  (47) 
OPS PC6 out of range. Value: 4.1841. Training min, max, SD, explained variance: -5.674, 3.9834, 1.993, 0.0519.
Unknown FCFP_2 feature: 1018882710: [*]CS(=O)(=O)O[*]

>  <ADMET_EXT_CYP2D6_Applicability#MD>  (47) 
11.9172141076464

>  <ADMET_EXT_CYP2D6_Applicability#MDpvalue>  (47) 
0.00352147413662016

>  <ADMET_EXT_Hepatotoxic>  (47) 
-4.75312743699848

>  <ADMET_EXT_Hepatotoxic#Prediction>  (47) 
false

>  <ADMET_EXT_Hepatotoxic_Applicability>  (47) 
All properties and OPS components are within expected ranges.
Unknown FCFP_2 feature: 1018882710: [*]CS(=O)(=O)O[*]

>  <ADMET_EXT_Hepatotoxic_Applicability#MD>  (47) 
9.82205684512918

>  <ADMET_EXT_Hepatotoxic_Applicability#MDpvalue>  (47) 
0.129919680475317

>  <ADMET_Absorption_Level>  (47) 
0

>  <ADMET_EXT_PPB>  (47) 
2.79956417352102

>  <ADMET_EXT_PPB#Prediction>  (47) 
true

>  <ADMET_EXT_PPB_Applicability>  (47) 
All properties and OPS components are within expected ranges.

>  <ADMET_EXT_PPB_Applicability#MD>  (47) 
11.3858584371914

>  <ADMET_EXT_PPB_Applicability#MDpvalue>  (47) 
0.296743957032202

>  <ADMET_AlogP98>  (47) 
2.509

>  <ADMET_PSA_2D>  (47) 
76.995

$$$$
Molecule
     RDKit          3D

 23 23  0  0  0  0  0  0  0  0999 V2000
   -1.5332   -2.3308   -0.1264 S   0  0  0  0  0  0  0  0  0  0  0  0
   -1.4747   -0.5398   -0.2653 N   0  0  0  0  0  0  0  0  0  0  0  0
   -2.7156    0.3906   -0.0901 C   0  0  0  0  0  0  0  0  0  0  0  0
   -0.2284   -0.0496   -0.8560 C   0  0  0  0  0  0  0  0  0  0  0  0
    1.0489   -0.6671   -0.2731 C   0  0  0  0  0  0  0  0  0  0  0  0
   -0.5742   -2.8880   -1.1626 O   0  0  0  0  0  0  0  0  0  0  0  0
   -1.0236   -2.7216    1.2480 O   0  0  0  0  0  0  0  0  0  0  0  0
   -2.8002    1.7554    0.1812 C   0  0  0  0  0  0  0  0  0  0  0  0
    1.0182   -1.7001    0.4006 O   0  0  0  0  0  0  0  0  0  0  0  0
    2.2220   -0.0743   -0.4783 N   0  0  0  0  0  0  0  0  0  0  0  0
   -3.1034   -3.2229   -0.3987 C   0  0  0  0  0  0  0  0  0  0  0  0
   -1.7970    2.8062    0.4638 O   0  0  0  0  0  0  0  0  0  0  0  0
   -4.0156   -0.2903   -0.2629 C   0  0  0  0  0  0  0  0  0  0  0  0
    4.6342    0.2200   -0.2564 C   0  0  0  0  0  0  0  0  0  0  0  0
    7.0584    0.2953   -0.1397 O   0  0  0  0  0  0  0  0  0  0  0  0
    3.4154   -0.6620    0.0688 C   0  0  0  0  0  0  0  0  0  0  0  0
   -4.1506    2.3747    0.2242 C   0  0  0  0  0  0  0  0  0  0  0  0
    5.9189   -0.4994    0.1992 C   0  0  0  0  0  0  0  0  0  0  0  0
   -0.4294    2.5737    0.7232 C   0  0  0  0  0  0  0  0  0  0  0  0
    8.2534   -0.4302    0.1625 C   0  0  0  0  0  0  0  0  0  0  0  0
   -5.1980    0.3055   -0.2010 C   0  0  0  0  0  0  0  0  0  0  0  0
    0.3769    3.8612    0.4987 C   0  0  0  0  0  0  0  0  0  0  0  0
   -5.2708    1.6957    0.0451 C   0  0  0  0  0  0  0  0  0  0  0  0
  2  1  1  0
  3  2  1  0
  4  2  1  0
  5  4  1  0
  6  1  2  0
  7  1  2  0
  8  3  2  0
  9  5  2  0
 10  5  1  0
 11  1  1  0
 12  8  1  0
 13  3  1  0
 14 16  1  0
 15 18  1  0
 16 10  1  0
 17  8  1  0
 18 14  1  0
 19 12  1  0
 20 15  1  0
 21 13  2  0
 22 19  1  0
 23 21  1  0
 23 17  2  0
M  END
>  <Name>  (48) 
Molecule

>  <IDNUMBER>  (48) 
BAS 02182152

>  <Num_H_Acceptors_Lipinski>  (48) 
7

>  <Num_H_Donors_Lipinski>  (48) 
1

>  <Molecular_Weight>  (48) 
344.42646

>  <ALogP>  (48) 
0.27

>  <Num_RotatableBonds>  (48) 
10

>  <Molecular_PolarSurfaceArea>  (48) 
93.32

>  <Num_H_Acceptors>  (48) 
5

>  <Num_H_Donors>  (48) 
1

>  <ADMET_Solubility>  (48) 
-1.053

>  <ADMET_Solubility_Level>  (48) 
4

>  <ADMET_Unknown_AlogP98>  (48) 
0

>  <ADMET_BBB>  (48) 
-1.43

>  <ADMET_BBB_Level>  (48) 
3

>  <ADMET_EXT_CYP2D6>  (48) 
-12.0936855847469

>  <ADMET_EXT_CYP2D6#Prediction>  (48) 
false

>  <ADMET_EXT_CYP2D6_Applicability>  (48) 
All properties and OPS components are within expected ranges.
Unknown FCFP_2 feature: 1018882710: [*]CS(=O)(=O)O[*]

>  <ADMET_EXT_CYP2D6_Applicability#MD>  (48) 
14.7906214429024

>  <ADMET_EXT_CYP2D6_Applicability#MDpvalue>  (48) 
3.51236194234462e-06

>  <ADMET_EXT_Hepatotoxic>  (48) 
-4.38856223090432

>  <ADMET_EXT_Hepatotoxic#Prediction>  (48) 
false

>  <ADMET_EXT_Hepatotoxic_Applicability>  (48) 
All properties and OPS components are within expected ranges.
Unknown FCFP_2 feature: 1018882710: [*]CS(=O)(=O)O[*]

>  <ADMET_EXT_Hepatotoxic_Applicability#MD>  (48) 
13.129382152431

>  <ADMET_EXT_Hepatotoxic_Applicability#MDpvalue>  (48) 
9.59355768733932e-07

>  <ADMET_Absorption_Level>  (48) 
0

>  <ADMET_EXT_PPB>  (48) 
-1.49661630539044

>  <ADMET_EXT_PPB#Prediction>  (48) 
true

>  <ADMET_EXT_PPB_Applicability>  (48) 
All properties and OPS components are within expected ranges.

>  <ADMET_EXT_PPB_Applicability#MD>  (48) 
12.7482255073148

>  <ADMET_EXT_PPB_Applicability#MDpvalue>  (48) 
0.0127826656857737

>  <ADMET_AlogP98>  (48) 
0.27

>  <ADMET_PSA_2D>  (48) 
85.925

$$$$
Molecule
     RDKit          3D

 27 28  0  0  0  0  0  0  0  0999 V2000
   -1.7361   -2.1456    0.1770 S   0  0  0  0  0  0  0  0  0  0  0  0
   -1.7880   -0.3552    0.0310 N   0  0  0  0  0  0  0  0  0  0  0  0
   -3.0866    0.4546   -0.0135 C   0  0  0  0  0  0  0  0  0  0  0  0
   -0.4748    0.3628   -0.0221 C   0  0  0  0  0  0  0  0  0  0  0  0
   -3.1442    1.8154   -0.0309 C   0  0  0  0  0  0  0  0  0  0  0  0
    0.8247   -0.4604   -0.0879 C   0  0  0  0  0  0  0  0  0  0  0  0
   -4.3780   -0.2511   -0.0349 C   0  0  0  0  0  0  0  0  0  0  0  0
   -4.4663    2.4948   -0.0605 C   0  0  0  0  0  0  0  0  0  0  0  0
   -0.8089   -2.4880    1.3288 O   0  0  0  0  0  0  0  0  0  0  0  0
   -1.1496   -2.7076   -1.1050 O   0  0  0  0  0  0  0  0  0  0  0  0
    0.8232   -1.6876   -0.1910 O   0  0  0  0  0  0  0  0  0  0  0  0
    2.0004    0.1615   -0.0308 N   0  0  0  0  0  0  0  0  0  0  0  0
   -5.6034    1.8056   -0.0699 C   0  0  0  0  0  0  0  0  0  0  0  0
   -3.2723   -3.0722    0.5097 C   0  0  0  0  0  0  0  0  0  0  0  0
   -5.5499    0.3730   -0.0611 C   0  0  0  0  0  0  0  0  0  0  0  0
   -2.0014    2.6425   -0.0171 O   0  0  0  0  0  0  0  0  0  0  0  0
    3.2162   -0.6152   -0.0754 C   0  0  0  0  0  0  0  0  0  0  0  0
   -6.8546    2.4505   -0.0871 O   0  0  0  0  0  0  0  0  0  0  0  0
    5.7333   -0.4711   -0.0158 C   0  0  0  0  0  0  0  0  0  0  0  0
    4.4429    0.3219   -0.0253 C   0  0  0  0  0  0  0  0  0  0  0  0
   -2.3535    4.0367   -0.0416 C   0  0  0  0  0  0  0  0  0  0  0  0
   -6.7143    3.8786   -0.0851 C   0  0  0  0  0  0  0  0  0  0  0  0
    5.7142   -1.8049   -0.0148 C   0  0  0  0  0  0  0  0  0  0  0  0
    7.0176    0.2379   -0.0015 C   0  0  0  0  0  0  0  0  0  0  0  0
    6.9746   -2.5582   -0.0004 C   0  0  0  0  0  0  0  0  0  0  0  0
    8.1609   -0.4463    0.0118 C   0  0  0  0  0  0  0  0  0  0  0  0
    8.1388   -1.9107    0.0126 C   0  0  0  0  0  0  0  0  0  0  0  0
  2  1  1  0
  3  2  1  0
  4  2  1  0
  5  3  2  0
  6  4  1  0
  7  3  1  0
  8  5  1  0
  9  1  2  0
 10  1  2  0
 11  6  2  0
 12  6  1  0
 13 15  1  0
 14  1  1  0
 15  7  2  0
 16  5  1  0
 17 12  1  0
 18 13  1  0
 19 20  1  0
 20 17  1  0
 21 16  1  0
 22 18  1  0
 23 19  2  0
 24 19  1  0
 25 23  1  0
 26 24  2  0
 27 26  1  0
 13  8  2  0
 27 25  2  0
M  END
>  <Name>  (49) 
Molecule

>  <IDNUMBER>  (49) 
BAS 02184031

>  <Num_H_Acceptors_Lipinski>  (49) 
7

>  <Num_H_Donors_Lipinski>  (49) 
1

>  <Molecular_Weight>  (49) 
392.46926

>  <ALogP>  (49) 
1.878

>  <Num_RotatableBonds>  (49) 
9

>  <Molecular_PolarSurfaceArea>  (49) 
93.32

>  <Num_H_Acceptors>  (49) 
5

>  <Num_H_Donors>  (49) 
1

>  <ADMET_Solubility>  (49) 
-2.764

>  <ADMET_Solubility_Level>  (49) 
3

>  <ADMET_Unknown_AlogP98>  (49) 
0

>  <ADMET_BBB>  (49) 
-0.933

>  <ADMET_BBB_Level>  (49) 
3

>  <ADMET_EXT_CYP2D6>  (49) 
-13.1367961004389

>  <ADMET_EXT_CYP2D6#Prediction>  (49) 
false

>  <ADMET_EXT_CYP2D6_Applicability>  (49) 
OPS PC6 out of range. Value: 4.8649. Training min, max, SD, explained variance: -5.674, 3.9834, 1.993, 0.0519.
Unknown FCFP_2 feature: 1018882710: [*]CS(=O)(=O)O[*]

>  <ADMET_EXT_CYP2D6_Applicability#MD>  (49) 
9.8493297886115

>  <ADMET_EXT_CYP2D6_Applicability#MDpvalue>  (49) 
0.144779273208721

>  <ADMET_EXT_Hepatotoxic>  (49) 
-7.13758568463865

>  <ADMET_EXT_Hepatotoxic#Prediction>  (49) 
false

>  <ADMET_EXT_Hepatotoxic_Applicability>  (49) 
OPS PC11 out of range. Value: 4.3782. Training min, max, SD, explained variance: -4.0074, 4.0205, 1.463, 0.0267.
Unknown FCFP_2 feature: 1018882710: [*]CS(=O)(=O)O[*]

>  <ADMET_EXT_Hepatotoxic_Applicability#MD>  (49) 
9.98529754365786

>  <ADMET_EXT_Hepatotoxic_Applicability#MDpvalue>  (49) 
0.0929211481393941

>  <ADMET_Absorption_Level>  (49) 
0

>  <ADMET_EXT_PPB>  (49) 
1.70002847292915

>  <ADMET_EXT_PPB#Prediction>  (49) 
true

>  <ADMET_EXT_PPB_Applicability>  (49) 
All properties and OPS components are within expected ranges.

>  <ADMET_EXT_PPB_Applicability#MD>  (49) 
11.6360279440771

>  <ADMET_EXT_PPB_Applicability#MDpvalue>  (49) 
0.196664248921537

>  <ADMET_AlogP98>  (49) 
1.878

>  <ADMET_PSA_2D>  (49) 
85.925

$$$$
Molecule
     RDKit          3D

 30 32  0  0  0  0  0  0  0  0999 V2000
   -7.1808    0.9124    0.0002 C   0  0  0  0  0  0  0  0  0  0  0  0
   -4.7477    0.8733    0.0002 N   0  0  0  0  0  0  0  0  0  0  0  0
    3.9713   -1.1936   -0.0002 C   0  0  0  0  0  0  0  0  0  0  0  0
   -5.9223    1.5756    0.0001 N   0  0  0  0  0  0  0  0  0  0  0  0
   -7.2195   -0.3245    0.0002 O   0  0  0  0  0  0  0  0  0  0  0  0
  -10.8559    3.0721    0.0000 N   0  0  0  0  0  0  0  0  0  0  0  0
   -8.4583    1.6743    0.0001 C   0  0  0  0  0  0  0  0  0  0  0  0
    3.8754   -2.4260   -0.0002 O   0  0  0  0  0  0  0  0  0  0  0  0
    5.1938   -0.6278   -0.0003 N   0  0  0  0  0  0  0  0  0  0  0  0
   -3.6276    1.4954    0.0001 C   0  0  0  0  0  0  0  0  0  0  0  0
    1.5067   -1.1980    0.0000 O   0  0  0  0  0  0  0  0  0  0  0  0
    2.6875   -0.3313   -0.0002 C   0  0  0  0  0  0  0  0  0  0  0  0
    0.2404   -0.5035    0.0000 C   0  0  0  0  0  0  0  0  0  0  0  0
   -2.2967    0.7889    0.0001 C   0  0  0  0  0  0  0  0  0  0  0  0
    0.1546    0.9695   -0.0001 C   0  0  0  0  0  0  0  0  0  0  0  0
   -0.8937   -1.2137    0.0001 C   0  0  0  0  0  0  0  0  0  0  0  0
   -2.2212   -0.5425    0.0002 C   0  0  0  0  0  0  0  0  0  0  0  0
   -1.0406    1.5766   -0.0001 C   0  0  0  0  0  0  0  0  0  0  0  0
    6.4147   -1.4525   -0.0004 C   0  0  0  0  0  0  0  0  0  0  0  0
    9.0042   -1.3182   -0.0001 C   0  0  0  0  0  0  0  0  0  0  0  0
   -9.7552    3.7167    0.0000 C   0  0  0  0  0  0  0  0  0  0  0  0
  -10.8772    1.6634    0.0001 C   0  0  0  0  0  0  0  0  0  0  0  0
   -8.4649    3.0064    0.0000 C   0  0  0  0  0  0  0  0  0  0  0  0
   -9.7396    0.9682    0.0002 C   0  0  0  0  0  0  0  0  0  0  0  0
    7.6836   -0.5356   -0.0001 C   0  0  0  0  0  0  0  0  0  0  0  0
    9.0208   -2.6525   -0.0005 C   0  0  0  0  0  0  0  0  0  0  0  0
   10.2817   -0.5804    0.0002 C   0  0  0  0  0  0  0  0  0  0  0  0
   10.3082   -3.3748   -0.0005 C   0  0  0  0  0  0  0  0  0  0  0  0
   11.4430   -1.2363    0.0002 C   0  0  0  0  0  0  0  0  0  0  0  0
   11.4577   -2.6998   -0.0001 C   0  0  0  0  0  0  0  0  0  0  0  0
  2  4  1  0
  3 12  1  0
  4  1  1  0
  5  1  2  0
  6 21  2  0
  7  1  1  0
  8  3  2  0
  9  3  1  0
 10  2  2  0
 11 13  1  0
 12 11  1  0
 13 16  2  0
 14 10  1  0
 15 18  2  0
 16 17  1  0
 17 14  2  0
 18 14  1  0
 19  9  1  0
 20 25  1  0
 21 23  1  0
 22 24  2  0
 23  7  2  0
 24  7  1  0
 25 19  1  0
 26 20  2  0
 27 20  1  0
 28 26  1  0
 29 27  2  0
 30 29  1  0
  6 22  1  0
 13 15  1  0
 30 28  2  0
M  END
>  <Name>  (50) 
Molecule

>  <IDNUMBER>  (50) 
BAS 02184959

>  <Num_H_Acceptors_Lipinski>  (50) 
7

>  <Num_H_Donors_Lipinski>  (50) 
2

>  <Molecular_Weight>  (50) 
402.44578

>  <ALogP>  (50) 
2.48

>  <Num_RotatableBonds>  (50) 
9

>  <Molecular_PolarSurfaceArea>  (50) 
92.68

>  <Num_H_Acceptors>  (50) 
5

>  <Num_H_Donors>  (50) 
2

>  <ADMET_Solubility>  (50) 
-2.968

>  <ADMET_Solubility_Level>  (50) 
3

>  <ADMET_Unknown_AlogP98>  (50) 
0

>  <ADMET_BBB>  (50) 
-0.839

>  <ADMET_BBB_Level>  (50) 
3

>  <ADMET_EXT_CYP2D6>  (50) 
-10.2863957155924

>  <ADMET_EXT_CYP2D6#Prediction>  (50) 
false

>  <ADMET_EXT_CYP2D6_Applicability>  (50) 
OPS PC6 out of range. Value: 6.01. Training min, max, SD, explained variance: -5.674, 3.9834, 1.993, 0.0519.

>  <ADMET_EXT_CYP2D6_Applicability#MD>  (50) 
17.758139034729

>  <ADMET_EXT_CYP2D6_Applicability#MDpvalue>  (50) 
1.35531594777217e-09

>  <ADMET_EXT_Hepatotoxic>  (50) 
-6.67723315258377

>  <ADMET_EXT_Hepatotoxic#Prediction>  (50) 
false

>  <ADMET_EXT_Hepatotoxic_Applicability>  (50) 
All properties and OPS components are within expected ranges.

>  <ADMET_EXT_Hepatotoxic_Applicability#MD>  (50) 
14.4120975878778

>  <ADMET_EXT_Hepatotoxic_Applicability#MDpvalue>  (50) 
9.64976519857057e-10

>  <ADMET_Absorption_Level>  (50) 
0

>  <ADMET_EXT_PPB>  (50) 
-4.50108133895786

>  <ADMET_EXT_PPB#Prediction>  (50) 
false

>  <ADMET_EXT_PPB_Applicability>  (50) 
OPS PC22 out of range. Value: -5.265. Training min, max, SD, explained variance: -4.213, 4.3127, 1.256, 0.0130.

>  <ADMET_EXT_PPB_Applicability#MD>  (50) 
14.1990719261743

>  <ADMET_EXT_PPB_Applicability#MDpvalue>  (50) 
4.14289926472939e-05

>  <ADMET_AlogP98>  (50) 
2.48

>  <ADMET_PSA_2D>  (50) 
91.736

$$$$
Molecule
     RDKit          3D

 29 31  0  0  0  0  0  0  0  0999 V2000
   -0.9793   -0.1977   -0.1045 C   0  0  0  0  0  0  0  0  0  0  0  0
   -7.4163    1.7931   -0.2322 N   0  0  0  0  0  0  0  0  0  0  0  0
    1.4239   -0.1996    0.0289 N   0  0  0  0  0  0  0  0  0  0  0  0
    9.9784   -2.2178   -0.0052 C   0  0  0  0  0  0  0  0  0  0  0  0
   -2.2913    0.5096   -0.0429 C   0  0  0  0  0  0  0  0  0  0  0  0
    0.2488    0.4874    0.0765 N   0  0  0  0  0  0  0  0  0  0  0  0
   -0.9634   -1.4135   -0.3160 O   0  0  0  0  0  0  0  0  0  0  0  0
    9.9553   -3.4540   -0.0134 O   0  0  0  0  0  0  0  0  0  0  0  0
  -10.1458    0.9978    0.2586 O   0  0  0  0  0  0  0  0  0  0  0  0
   -6.1656    2.5584    0.1235 C   0  0  0  0  0  0  0  0  0  0  0  0
   -2.3669    1.8106    0.2311 C   0  0  0  0  0  0  0  0  0  0  0  0
   -3.5282   -0.2468   -0.2926 C   0  0  0  0  0  0  0  0  0  0  0  0
    2.5414    0.4195    0.0600 C   0  0  0  0  0  0  0  0  0  0  0  0
    7.5656   -2.3432   -0.0282 O   0  0  0  0  0  0  0  0  0  0  0  0
    8.6860   -1.4366   -0.0052 C   0  0  0  0  0  0  0  0  0  0  0  0
   11.2051   -1.5452    0.0063 N   0  0  0  0  0  0  0  0  0  0  0  0
    6.3294   -1.6517   -0.0128 C   0  0  0  0  0  0  0  0  0  0  0  0
   -4.8144    1.7970    0.0645 C   0  0  0  0  0  0  0  0  0  0  0  0
    3.8449   -0.3067    0.0269 C   0  0  0  0  0  0  0  0  0  0  0  0
   -4.7168    0.3584   -0.2487 C   0  0  0  0  0  0  0  0  0  0  0  0
   -3.6875    2.4806    0.2880 C   0  0  0  0  0  0  0  0  0  0  0  0
    6.2820   -0.1809    0.0235 C   0  0  0  0  0  0  0  0  0  0  0  0
    5.1870   -2.3417   -0.0289 C   0  0  0  0  0  0  0  0  0  0  0  0
    5.1071    0.4538    0.0424 C   0  0  0  0  0  0  0  0  0  0  0  0
    3.8854   -1.6393   -0.0079 C   0  0  0  0  0  0  0  0  0  0  0  0
   -7.7701    0.7583    0.7753 C   0  0  0  0  0  0  0  0  0  0  0  0
   -8.5402    2.7554   -0.2973 C   0  0  0  0  0  0  0  0  0  0  0  0
   -9.8400    2.0202   -0.7035 C   0  0  0  0  0  0  0  0  0  0  0  0
   -9.0717    0.0437    0.3336 C   0  0  0  0  0  0  0  0  0  0  0  0
  2 10  1  0
  3  6  1  0
  4 15  1  0
  5  1  1  0
  6  1  1  0
  7  1  2  0
  8  4  2  0
  9 28  1  0
 10 18  1  0
 11  5  2  0
 12  5  1  0
 13  3  2  0
 14 17  1  0
 15 14  1  0
 16  4  1  0
 17 23  2  0
 18 20  1  0
 19 13  1  0
 20 12  2  0
 21 11  1  0
 22 24  2  0
 23 25  1  0
 24 19  1  0
 25 19  2  0
 26  2  1  0
 27  2  1  0
 28 27  1  0
 29 26  1  0
 21 18  2  0
 17 22  1  0
  9 29  1  0
M  END
>  <Name>  (51) 
Molecule

>  <IDNUMBER>  (51) 
BAS 02187387

>  <Num_H_Acceptors_Lipinski>  (51) 
8

>  <Num_H_Donors_Lipinski>  (51) 
3

>  <Molecular_Weight>  (51) 
396.43966

>  <ALogP>  (51) 
1.282

>  <Num_RotatableBonds>  (51) 
8

>  <Molecular_PolarSurfaceArea>  (51) 
106.25

>  <Num_H_Acceptors>  (51) 
6

>  <Num_H_Donors>  (51) 
2

>  <ADMET_Solubility>  (51) 
-2.736

>  <ADMET_Solubility_Level>  (51) 
3

>  <ADMET_Unknown_AlogP98>  (51) 
0

>  <ADMET_BBB>  (51) 
-1.443

>  <ADMET_BBB_Level>  (51) 
3

>  <ADMET_EXT_CYP2D6>  (51) 
-8.63613786370875

>  <ADMET_EXT_CYP2D6#Prediction>  (51) 
false

>  <ADMET_EXT_CYP2D6_Applicability>  (51) 
All properties and OPS components are within expected ranges.

>  <ADMET_EXT_CYP2D6_Applicability#MD>  (51) 
16.3948197852736

>  <ADMET_EXT_CYP2D6_Applicability#MDpvalue>  (51) 
5.16158800750683e-08

>  <ADMET_EXT_Hepatotoxic>  (51) 
-6.25553623236612

>  <ADMET_EXT_Hepatotoxic#Prediction>  (51) 
false

>  <ADMET_EXT_Hepatotoxic_Applicability>  (51) 
All properties and OPS components are within expected ranges.

>  <ADMET_EXT_Hepatotoxic_Applicability#MD>  (51) 
13.0135552933506

>  <ADMET_EXT_Hepatotoxic_Applicability#MDpvalue>  (51) 
1.69650357660841e-06

>  <ADMET_Absorption_Level>  (51) 
0

>  <ADMET_EXT_PPB>  (51) 
-9.03253635430332

>  <ADMET_EXT_PPB#Prediction>  (51) 
false

>  <ADMET_EXT_PPB_Applicability>  (51) 
All properties and OPS components are within expected ranges.

>  <ADMET_EXT_PPB_Applicability#MD>  (51) 
14.6478295643778

>  <ADMET_EXT_PPB_Applicability#MDpvalue>  (51) 
4.44318023540737e-06

>  <ADMET_AlogP98>  (51) 
1.282

>  <ADMET_PSA_2D>  (51) 
106.487

$$$$
Molecule
     RDKit          3D

 25 26  0  0  0  0  0  0  0  0999 V2000
   -1.4021   -2.0436   -0.1928 S   0  0  0  0  0  0  0  0  0  0  0  0
   -1.4911   -0.2619   -0.0262 N   0  0  0  0  0  0  0  0  0  0  0  0
   -0.2251    0.5445    0.0256 C   0  0  0  0  0  0  0  0  0  0  0  0
    1.0892   -0.2558    0.1151 C   0  0  0  0  0  0  0  0  0  0  0  0
    2.2789    0.3715   -0.0128 N   0  0  0  0  0  0  0  0  0  0  0  0
   -0.4305   -2.3610   -1.3151 O   0  0  0  0  0  0  0  0  0  0  0  0
   -0.8590   -2.6158    1.1041 O   0  0  0  0  0  0  0  0  0  0  0  0
    3.5602   -0.3085    0.0098 C   0  0  0  0  0  0  0  0  0  0  0  0
   -2.7426    0.4945    0.0229 C   0  0  0  0  0  0  0  0  0  0  0  0
    1.0532   -1.4695    0.3051 O   0  0  0  0  0  0  0  0  0  0  0  0
    4.8056    0.4784    0.0039 C   0  0  0  0  0  0  0  0  0  0  0  0
   -4.0602   -0.1452    0.0059 C   0  0  0  0  0  0  0  0  0  0  0  0
   -2.6943    1.8288    0.0791 C   0  0  0  0  0  0  0  0  0  0  0  0
   -2.9230   -2.9660   -0.5875 C   0  0  0  0  0  0  0  0  0  0  0  0
   -5.1249    2.0184    0.0873 C   0  0  0  0  0  0  0  0  0  0  0  0
   -5.1822    0.5654    0.0333 C   0  0  0  0  0  0  0  0  0  0  0  0
   -3.9385    2.6249    0.1135 C   0  0  0  0  0  0  0  0  0  0  0  0
   -6.3070    2.7771    0.1099 O   0  0  0  0  0  0  0  0  0  0  0  0
    3.6496   -1.6437    0.0147 C   0  0  0  0  0  0  0  0  0  0  0  0
    4.7441    1.9830   -0.0021 C   0  0  0  0  0  0  0  0  0  0  0  0
    5.9883   -0.1390    0.0055 C   0  0  0  0  0  0  0  0  0  0  0  0
   -7.4661    1.9254    0.0653 C   0  0  0  0  0  0  0  0  0  0  0  0
    6.1722    2.5738    0.0005 C   0  0  0  0  0  0  0  0  0  0  0  0
    4.9450   -2.3157    0.0193 C   0  0  0  0  0  0  0  0  0  0  0  0
    6.0635   -1.5985    0.0134 C   0  0  0  0  0  0  0  0  0  0  0  0
  2  1  1  0
  3  2  1  0
  4  3  1  0
  5  4  1  0
  6  1  2  0
  7  1  2  0
  8  5  1  0
  9  2  1  0
 10  4  2  0
 11  8  2  0
 12  9  2  0
 13  9  1  0
 14  1  1  0
 15 16  2  0
 16 12  1  0
 17 13  2  0
 18 15  1  0
 19  8  1  0
 20 11  1  0
 21 11  1  0
 22 18  1  0
 23 20  1  0
 24 19  2  0
 25 24  1  0
 15 17  1  0
 25 21  2  0
M  END
>  <Name>  (52) 
Molecule

>  <IDNUMBER>  (52) 
BAS 02188704

>  <Num_H_Acceptors_Lipinski>  (52) 
6

>  <Num_H_Donors_Lipinski>  (52) 
1

>  <Molecular_Weight>  (52) 
362.44328

>  <ALogP>  (52) 
2.509

>  <Num_RotatableBonds>  (52) 
7

>  <Molecular_PolarSurfaceArea>  (52) 
84.09

>  <Num_H_Acceptors>  (52) 
4

>  <Num_H_Donors>  (52) 
1

>  <ADMET_Solubility>  (52) 
-3.463

>  <ADMET_Solubility_Level>  (52) 
3

>  <ADMET_Unknown_AlogP98>  (52) 
0

>  <ADMET_BBB>  (52) 
-0.597

>  <ADMET_BBB_Level>  (52) 
3

>  <ADMET_EXT_CYP2D6>  (52) 
-9.66623791796982

>  <ADMET_EXT_CYP2D6#Prediction>  (52) 
false

>  <ADMET_EXT_CYP2D6_Applicability>  (52) 
OPS PC6 out of range. Value: 4.1841. Training min, max, SD, explained variance: -5.674, 3.9834, 1.993, 0.0519.
Unknown FCFP_2 feature: 1018882710: [*]CS(=O)(=O)O[*]

>  <ADMET_EXT_CYP2D6_Applicability#MD>  (52) 
11.9172141076464

>  <ADMET_EXT_CYP2D6_Applicability#MDpvalue>  (52) 
0.00352147413662016

>  <ADMET_EXT_Hepatotoxic>  (52) 
-4.16573378758897

>  <ADMET_EXT_Hepatotoxic#Prediction>  (52) 
false

>  <ADMET_EXT_Hepatotoxic_Applicability>  (52) 
All properties and OPS components are within expected ranges.
Unknown FCFP_2 feature: 1018882710: [*]CS(=O)(=O)O[*]

>  <ADMET_EXT_Hepatotoxic_Applicability#MD>  (52) 
9.82205684512918

>  <ADMET_EXT_Hepatotoxic_Applicability#MDpvalue>  (52) 
0.129919680475317

>  <ADMET_Absorption_Level>  (52) 
0

>  <ADMET_EXT_PPB>  (52) 
1.72058133570321

>  <ADMET_EXT_PPB#Prediction>  (52) 
true

>  <ADMET_EXT_PPB_Applicability>  (52) 
All properties and OPS components are within expected ranges.

>  <ADMET_EXT_PPB_Applicability#MD>  (52) 
11.3858584371914

>  <ADMET_EXT_PPB_Applicability#MDpvalue>  (52) 
0.296743957032202

>  <ADMET_AlogP98>  (52) 
2.509

>  <ADMET_PSA_2D>  (52) 
76.995

$$$$
Molecule
     RDKit          3D

 28 29  0  0  0  0  0  0  0  0999 V2000
   -2.0802   -2.1859    0.1659 S   0  0  0  0  0  0  0  0  0  0  0  0
   -2.1886   -0.3988    0.0687 N   0  0  0  0  0  0  0  0  0  0  0  0
    4.1722    0.1339    0.0030 C   0  0  0  0  0  0  0  0  0  0  0  0
   -0.9290    0.4321    0.0736 C   0  0  0  0  0  0  0  0  0  0  0  0
   -3.4549    0.3280    0.0144 C   0  0  0  0  0  0  0  0  0  0  0  0
    0.3717   -0.3608   -0.1476 C   0  0  0  0  0  0  0  0  0  0  0  0
    2.8353   -0.5577    0.0276 C   0  0  0  0  0  0  0  0  0  0  0  0
    4.2244    1.6768    0.0206 C   0  0  0  0  0  0  0  0  0  0  0  0
    1.5856    0.1934    0.1171 N   0  0  0  0  0  0  0  0  0  0  0  0
   -4.7577   -0.3487   -0.0365 C   0  0  0  0  0  0  0  0  0  0  0  0
   -1.7124   -2.7168   -1.2078 O   0  0  0  0  0  0  0  0  0  0  0  0
   -0.9773   -2.5508    1.1429 O   0  0  0  0  0  0  0  0  0  0  0  0
   -5.8979    0.3332   -0.0672 C   0  0  0  0  0  0  0  0  0  0  0  0
   -5.8716    1.7894   -0.0585 C   0  0  0  0  0  0  0  0  0  0  0  0
   -3.4399    1.6629    0.0174 C   0  0  0  0  0  0  0  0  0  0  0  0
    0.2970   -1.5134   -0.5694 O   0  0  0  0  0  0  0  0  0  0  0  0
    3.1332    2.2574    0.0374 O   0  0  0  0  0  0  0  0  0  0  0  0
   -4.7018    2.4263   -0.0217 C   0  0  0  0  0  0  0  0  0  0  0  0
   -3.5462   -3.1045    0.7426 C   0  0  0  0  0  0  0  0  0  0  0  0
    5.4134    2.5622    0.0147 O   0  0  0  0  0  0  0  0  0  0  0  0
    5.2673   -0.6388   -0.0402 C   0  0  0  0  0  0  0  0  0  0  0  0
    2.8054   -1.8930    0.0115 C   0  0  0  0  0  0  0  0  0  0  0  0
   -7.2074   -0.4054   -0.1093 C   0  0  0  0  0  0  0  0  0  0  0  0
   -7.1575    2.5683   -0.0924 C   0  0  0  0  0  0  0  0  0  0  0  0
    6.7581    2.0155   -0.0022 C   0  0  0  0  0  0  0  0  0  0  0  0
    5.1936   -2.0897   -0.0635 C   0  0  0  0  0  0  0  0  0  0  0  0
    4.0141   -2.6900   -0.0416 C   0  0  0  0  0  0  0  0  0  0  0  0
    7.7995    3.1488   -0.0012 C   0  0  0  0  0  0  0  0  0  0  0  0
  2  1  1  0
  3  7  2  0
  4  2  1  0
  5  2  1  0
  6  4  1  0
  7  9  1  0
  8  3  1  0
  9  6  1  0
 10  5  2  0
 11  1  2  0
 12  1  2  0
 13 10  1  0
 14 18  1  0
 15  5  1  0
 16  6  2  0
 17  8  2  0
 18 15  2  0
 19  1  1  0
 20  8  1  0
 21  3  1  0
 22  7  1  0
 23 13  1  0
 24 14  1  0
 25 20  1  0
 26 27  1  0
 27 22  2  0
 28 25  1  0
 14 13  2  0
 26 21  2  0
M  END
>  <Name>  (53) 
Molecule

>  <IDNUMBER>  (53) 
BAS 02189477

>  <Num_H_Acceptors_Lipinski>  (53) 
7

>  <Num_H_Donors_Lipinski>  (53) 
1

>  <Molecular_Weight>  (53) 
404.47996

>  <ALogP>  (53) 
2.759

>  <Num_RotatableBonds>  (53) 
8

>  <Molecular_PolarSurfaceArea>  (53) 
101.16

>  <Num_H_Acceptors>  (53) 
5

>  <Num_H_Donors>  (53) 
1

>  <ADMET_Solubility>  (53) 
-3.764

>  <ADMET_Solubility_Level>  (53) 
3

>  <ADMET_Unknown_AlogP98>  (53) 
0

>  <ADMET_BBB>  (53) 
-0.793

>  <ADMET_BBB_Level>  (53) 
3

>  <ADMET_EXT_CYP2D6>  (53) 
-10.8992576046687

>  <ADMET_EXT_CYP2D6#Prediction>  (53) 
false

>  <ADMET_EXT_CYP2D6_Applicability>  (53) 
All properties and OPS components are within expected ranges.
Unknown FCFP_2 feature: 1018882710: [*]CS(=O)(=O)O[*]

>  <ADMET_EXT_CYP2D6_Applicability#MD>  (53) 
14.7653435644379

>  <ADMET_EXT_CYP2D6_Applicability#MDpvalue>  (53) 
3.74951121121656e-06

>  <ADMET_EXT_Hepatotoxic>  (53) 
-6.36923184771504

>  <ADMET_EXT_Hepatotoxic#Prediction>  (53) 
false

>  <ADMET_EXT_Hepatotoxic_Applicability>  (53) 
All properties and OPS components are within expected ranges.
Unknown FCFP_2 feature: 1018882710: [*]CS(=O)(=O)O[*]

>  <ADMET_EXT_Hepatotoxic_Applicability#MD>  (53) 
10.5123465544462

>  <ADMET_EXT_Hepatotoxic_Applicability#MDpvalue>  (53) 
0.0259790847396261

>  <ADMET_Absorption_Level>  (53) 
0

>  <ADMET_EXT_PPB>  (53) 
3.27174856762302

>  <ADMET_EXT_PPB#Prediction>  (53) 
true

>  <ADMET_EXT_PPB_Applicability>  (53) 
All properties and OPS components are within expected ranges.

>  <ADMET_EXT_PPB_Applicability#MD>  (53) 
11.9766633421778

>  <ADMET_EXT_PPB_Applicability#MDpvalue>  (53) 
0.0997035546747942

>  <ADMET_AlogP98>  (53) 
2.76

>  <ADMET_PSA_2D>  (53) 
94.295

$$$$
Molecule
     RDKit          3D

 23 24  0  0  0  0  0  0  0  0999 V2000
   -1.0049   -2.5595   -0.1471 S   0  0  0  0  0  0  0  0  0  0  0  0
   -0.9990   -0.7542   -0.2264 N   0  0  0  0  0  0  0  0  0  0  0  0
    0.2790   -0.1801   -0.7047 C   0  0  0  0  0  0  0  0  0  0  0  0
    1.5717   -0.8851   -0.2376 C   0  0  0  0  0  0  0  0  0  0  0  0
   -2.2880    0.1230   -0.0883 C   0  0  0  0  0  0  0  0  0  0  0  0
    2.8156   -0.2338   -0.3228 N   0  0  0  0  0  0  0  0  0  0  0  0
   -0.0669   -3.0682   -1.2266 O   0  0  0  0  0  0  0  0  0  0  0  0
   -0.4471   -2.9686    1.2035 O   0  0  0  0  0  0  0  0  0  0  0  0
   -2.4532    1.4716    0.2265 C   0  0  0  0  0  0  0  0  0  0  0  0
    1.5536   -2.0254    0.2290 O   0  0  0  0  0  0  0  0  0  0  0  0
    5.2870    1.0871   -0.2929 O   0  0  0  0  0  0  0  0  0  0  0  0
   -2.5536   -3.5022   -0.3799 C   0  0  0  0  0  0  0  0  0  0  0  0
   -1.5303    2.5631    0.5958 O   0  0  0  0  0  0  0  0  0  0  0  0
   -3.5471   -0.6067   -0.3457 C   0  0  0  0  0  0  0  0  0  0  0  0
    2.9110    1.1079   -0.8606 C   0  0  0  0  0  0  0  0  0  0  0  0
    4.0056   -0.9532    0.0911 C   0  0  0  0  0  0  0  0  0  0  0  0
    4.1015    1.8802   -0.2441 C   0  0  0  0  0  0  0  0  0  0  0  0
    5.1069   -0.0036    0.6068 C   0  0  0  0  0  0  0  0  0  0  0  0
   -3.8323    2.0235    0.2302 C   0  0  0  0  0  0  0  0  0  0  0  0
   -0.1619    2.4223    0.8836 C   0  0  0  0  0  0  0  0  0  0  0  0
   -4.7590   -0.0708   -0.3137 C   0  0  0  0  0  0  0  0  0  0  0  0
    0.4791    3.8099    1.0428 C   0  0  0  0  0  0  0  0  0  0  0  0
   -4.9100    1.3012   -0.0199 C   0  0  0  0  0  0  0  0  0  0  0  0
  2  1  1  0
  3  2  1  0
  4  3  1  0
  5  2  1  0
  6  4  1  0
  7  1  2  0
  8  1  2  0
  9  5  2  0
 10  4  2  0
 11 17  1  0
 12  1  1  0
 13  9  1  0
 14  5  1  0
 15  6  1  0
 16  6  1  0
 17 15  1  0
 18 16  1  0
 19  9  1  0
 20 13  1  0
 21 14  2  0
 22 20  1  0
 23 21  1  0
 23 19  2  0
 11 18  1  0
M  END
>  <Name>  (54) 
Molecule

>  <IDNUMBER>  (54) 
BAS 02191081

>  <Num_H_Acceptors_Lipinski>  (54) 
7

>  <Num_H_Donors_Lipinski>  (54) 
0

>  <Molecular_Weight>  (54) 
342.41058

>  <ALogP>  (54) 
0.232

>  <Num_RotatableBonds>  (54) 
6

>  <Molecular_PolarSurfaceArea>  (54) 
84.53

>  <Num_H_Acceptors>  (54) 
5

>  <Num_H_Donors>  (54) 
0

>  <ADMET_Solubility>  (54) 
-1.434

>  <ADMET_Solubility_Level>  (54) 
4

>  <ADMET_Unknown_AlogP98>  (54) 
0

>  <ADMET_BBB>  (54) 
-1.292

>  <ADMET_BBB_Level>  (54) 
3

>  <ADMET_EXT_CYP2D6>  (54) 
-13.0983034847773

>  <ADMET_EXT_CYP2D6#Prediction>  (54) 
false

>  <ADMET_EXT_CYP2D6_Applicability>  (54) 
All properties and OPS components are within expected ranges.
Unknown FCFP_2 feature: 1018882710: [*]CS(=O)(=O)O[*]

>  <ADMET_EXT_CYP2D6_Applicability#MD>  (54) 
11.7754960681048

>  <ADMET_EXT_CYP2D6_Applicability#MDpvalue>  (54) 
0.00475423943030366

>  <ADMET_EXT_Hepatotoxic>  (54) 
-4.57429583621296

>  <ADMET_EXT_Hepatotoxic#Prediction>  (54) 
false

>  <ADMET_EXT_Hepatotoxic_Applicability>  (54) 
All properties and OPS components are within expected ranges.
Unknown FCFP_2 feature: 1018882710: [*]CS(=O)(=O)O[*]

>  <ADMET_EXT_Hepatotoxic_Applicability#MD>  (54) 
11.2146598788632

>  <ADMET_EXT_Hepatotoxic_Applicability#MDpvalue>  (54) 
0.00306252673644275

>  <ADMET_Absorption_Level>  (54) 
0

>  <ADMET_EXT_PPB>  (54) 
-0.487914145880886

>  <ADMET_EXT_PPB#Prediction>  (54) 
true

>  <ADMET_EXT_PPB_Applicability>  (54) 
All properties and OPS components are within expected ranges.

>  <ADMET_EXT_PPB_Applicability#MD>  (54) 
12.0229552179495

>  <ADMET_EXT_PPB_Applicability#MDpvalue>  (54) 
0.0899399426471192

>  <ADMET_AlogP98>  (54) 
0.232

>  <ADMET_PSA_2D>  (54) 
76.467

$$$$
Molecule
     RDKit          3D

 29 30  0  0  0  0  0  0  0  0999 V2000
   -2.3525   -1.7669    0.1617 S   0  0  0  0  0  0  0  0  0  0  0  0
   -2.4039    0.0133    0.0486 N   0  0  0  0  0  0  0  0  0  0  0  0
   -1.1408    0.8000    0.0243 C   0  0  0  0  0  0  0  0  0  0  0  0
    0.1541    0.0071   -0.2049 C   0  0  0  0  0  0  0  0  0  0  0  0
    6.5276   -2.0043   -0.0395 C   0  0  0  0  0  0  0  0  0  0  0  0
   -1.1603   -2.1875    1.0010 O   0  0  0  0  0  0  0  0  0  0  0  0
   -2.1949   -2.3328   -1.2371 O   0  0  0  0  0  0  0  0  0  0  0  0
   -3.6489    0.7772    0.0403 C   0  0  0  0  0  0  0  0  0  0  0  0
    1.3307    0.5971    0.0757 N   0  0  0  0  0  0  0  0  0  0  0  0
    5.1890   -1.2474   -0.0300 C   0  0  0  0  0  0  0  0  0  0  0  0
   -6.0351    2.2911    0.0985 C   0  0  0  0  0  0  0  0  0  0  0  0
    0.1129   -1.1494   -0.6317 O   0  0  0  0  0  0  0  0  0  0  0  0
    6.4456   -3.2366   -0.0692 O   0  0  0  0  0  0  0  0  0  0  0  0
   -4.9648    0.1343   -0.0349 C   0  0  0  0  0  0  0  0  0  0  0  0
   -3.6027    2.1110    0.1171 C   0  0  0  0  0  0  0  0  0  0  0  0
   -6.0874    0.8443   -0.0028 C   0  0  0  0  0  0  0  0  0  0  0  0
   -4.8517    2.9048    0.1479 C   0  0  0  0  0  0  0  0  0  0  0  0
    4.0813   -1.9901   -0.0908 C   0  0  0  0  0  0  0  0  0  0  0  0
    5.0264    0.2246    0.0527 C   0  0  0  0  0  0  0  0  0  0  0  0
   -3.7759   -2.5755    0.9649 C   0  0  0  0  0  0  0  0  0  0  0  0
    2.6154   -0.0425    0.0042 C   0  0  0  0  0  0  0  0  0  0  0  0
    7.8874   -1.4640   -0.0143 O   0  0  0  0  0  0  0  0  0  0  0  0
   -7.3244    3.0760    0.1610 C   0  0  0  0  0  0  0  0  0  0  0  0
    3.8179    0.7845    0.0711 C   0  0  0  0  0  0  0  0  0  0  0  0
    2.7492   -1.3681   -0.0710 C   0  0  0  0  0  0  0  0  0  0  0  0
    8.1006   -0.0451    0.0123 C   0  0  0  0  0  0  0  0  0  0  0  0
   -7.2018    4.5126   -0.3763 C   0  0  0  0  0  0  0  0  0  0  0  0
   -8.5350    2.2933   -0.3886 C   0  0  0  0  0  0  0  0  0  0  0  0
    9.6107    0.2513    0.0209 C   0  0  0  0  0  0  0  0  0  0  0  0
  2  1  1  0
  3  2  1  0
  4  3  1  0
  5 10  1  0
  6  1  2  0
  7  1  2  0
  8  2  1  0
  9  4  1  0
 10 18  2  0
 11 16  2  0
 12  4  2  0
 13  5  2  0
 14  8  2  0
 15  8  1  0
 16 14  1  0
 17 15  2  0
 18 25  1  0
 19 24  2  0
 20  1  1  0
 21  9  1  0
 22  5  1  0
 23 11  1  0
 24 21  1  0
 25 21  2  0
 26 22  1  0
 27 23  1  0
 28 23  1  0
 29 26  1  0
 11 17  1  0
 10 19  1  0
M  END
>  <Name>  (55) 
Molecule

>  <IDNUMBER>  (55) 
BAS 02194005

>  <Num_H_Acceptors_Lipinski>  (55) 
7

>  <Num_H_Donors_Lipinski>  (55) 
1

>  <Molecular_Weight>  (55) 
418.50654

>  <ALogP>  (55) 
2.981

>  <Num_RotatableBonds>  (55) 
9

>  <Molecular_PolarSurfaceArea>  (55) 
101.16

>  <Num_H_Acceptors>  (55) 
5

>  <Num_H_Donors>  (55) 
1

>  <ADMET_Solubility>  (55) 
-3.73

>  <ADMET_Solubility_Level>  (55) 
3

>  <ADMET_Unknown_AlogP98>  (55) 
0

>  <ADMET_BBB>  (55) 
-0.725

>  <ADMET_BBB_Level>  (55) 
3

>  <ADMET_EXT_CYP2D6>  (55) 
-11.8195412613065

>  <ADMET_EXT_CYP2D6#Prediction>  (55) 
false

>  <ADMET_EXT_CYP2D6_Applicability>  (55) 
All properties and OPS components are within expected ranges.
Unknown FCFP_2 feature: 1018882710: [*]CS(=O)(=O)O[*]

>  <ADMET_EXT_CYP2D6_Applicability#MD>  (55) 
13.0690773810479

>  <ADMET_EXT_CYP2D6_Applicability#MDpvalue>  (55) 
0.00025841422177042

>  <ADMET_EXT_Hepatotoxic>  (55) 
-5.36312671782795

>  <ADMET_EXT_Hepatotoxic#Prediction>  (55) 
false

>  <ADMET_EXT_Hepatotoxic_Applicability>  (55) 
All properties and OPS components are within expected ranges.
Unknown FCFP_2 feature: 1018882710: [*]CS(=O)(=O)O[*]

>  <ADMET_EXT_Hepatotoxic_Applicability#MD>  (55) 
9.99489958337033

>  <ADMET_EXT_Hepatotoxic_Applicability#MDpvalue>  (55) 
0.0910265710654422

>  <ADMET_Absorption_Level>  (55) 
0

>  <ADMET_EXT_PPB>  (55) 
-0.679721451828434

>  <ADMET_EXT_PPB#Prediction>  (55) 
true

>  <ADMET_EXT_PPB_Applicability>  (55) 
All properties and OPS components are within expected ranges.

>  <ADMET_EXT_PPB_Applicability#MD>  (55) 
11.5769421315647

>  <ADMET_EXT_PPB_Applicability#MDpvalue>  (55) 
0.218168396413781

>  <ADMET_AlogP98>  (55) 
2.981

>  <ADMET_PSA_2D>  (55) 
94.295

$$$$
Molecule
     RDKit          3D

 27 28  0  0  0  0  0  0  0  0999 V2000
   -1.3524   -1.9065   -0.1269 S   0  0  0  0  0  0  0  0  0  0  0  0
   -1.4811   -0.1305   -0.0619 N   0  0  0  0  0  0  0  0  0  0  0  0
   -2.7522    0.6129   -0.0219 C   0  0  0  0  0  0  0  0  0  0  0  0
   -0.2331    0.6957   -0.0707 C   0  0  0  0  0  0  0  0  0  0  0  0
   -4.0655   -0.0489    0.0116 C   0  0  0  0  0  0  0  0  0  0  0  0
    1.1036   -0.0632    0.1015 C   0  0  0  0  0  0  0  0  0  0  0  0
   -5.2084    0.6596    0.0348 C   0  0  0  0  0  0  0  0  0  0  0  0
   -0.8647   -2.3964    1.2241 O   0  0  0  0  0  0  0  0  0  0  0  0
   -0.3236   -2.2710   -1.1812 O   0  0  0  0  0  0  0  0  0  0  0  0
   -5.1498    2.1088    0.0316 C   0  0  0  0  0  0  0  0  0  0  0  0
   -2.7199    1.9447   -0.0213 C   0  0  0  0  0  0  0  0  0  0  0  0
    1.1354   -1.2587    0.3949 O   0  0  0  0  0  0  0  0  0  0  0  0
   -3.9760    2.7275    0.0077 C   0  0  0  0  0  0  0  0  0  0  0  0
    2.2679    0.5656   -0.0704 N   0  0  0  0  0  0  0  0  0  0  0  0
   -2.8404   -2.8601   -0.5557 C   0  0  0  0  0  0  0  0  0  0  0  0
   -6.4560    0.0157    0.0596 O   0  0  0  0  0  0  0  0  0  0  0  0
   -6.3684    2.8265    0.0549 O   0  0  0  0  0  0  0  0  0  0  0  0
    3.4988   -0.1917    0.0658 C   0  0  0  0  0  0  0  0  0  0  0  0
    6.0246   -0.0647   -0.0068 C   0  0  0  0  0  0  0  0  0  0  0  0
    4.7326    0.7369   -0.0386 C   0  0  0  0  0  0  0  0  0  0  0  0
   -6.3287   -1.4117    0.0543 C   0  0  0  0  0  0  0  0  0  0  0  0
   -6.1481    4.2435    0.0462 C   0  0  0  0  0  0  0  0  0  0  0  0
    5.9999   -1.3985    0.0235 C   0  0  0  0  0  0  0  0  0  0  0  0
    7.3151    0.6366   -0.0221 C   0  0  0  0  0  0  0  0  0  0  0  0
    7.2579   -2.1588    0.0428 C   0  0  0  0  0  0  0  0  0  0  0  0
    8.4551   -0.0539   -0.0051 C   0  0  0  0  0  0  0  0  0  0  0  0
    8.4258   -1.5179    0.0285 C   0  0  0  0  0  0  0  0  0  0  0  0
  2  1  1  0
  3  2  1  0
  4  2  1  0
  5  3  2  0
  6  4  1  0
  7  5  1  0
  8  1  2  0
  9  1  2  0
 10 13  1  0
 11  3  1  0
 12  6  2  0
 13 11  2  0
 14  6  1  0
 15  1  1  0
 16  7  1  0
 17 10  1  0
 18 14  1  0
 19 20  1  0
 20 18  1  0
 21 16  1  0
 22 17  1  0
 23 19  2  0
 24 19  1  0
 25 23  1  0
 26 24  2  0
 27 26  1  0
 10  7  2  0
 27 25  2  0
M  END
>  <Name>  (56) 
Molecule

>  <IDNUMBER>  (56) 
BAS 02195078

>  <Num_H_Acceptors_Lipinski>  (56) 
7

>  <Num_H_Donors_Lipinski>  (56) 
1

>  <Molecular_Weight>  (56) 
392.46926

>  <ALogP>  (56) 
1.878

>  <Num_RotatableBonds>  (56) 
9

>  <Molecular_PolarSurfaceArea>  (56) 
93.32

>  <Num_H_Acceptors>  (56) 
5

>  <Num_H_Donors>  (56) 
1

>  <ADMET_Solubility>  (56) 
-2.75

>  <ADMET_Solubility_Level>  (56) 
3

>  <ADMET_Unknown_AlogP98>  (56) 
0

>  <ADMET_BBB>  (56) 
-0.933

>  <ADMET_BBB_Level>  (56) 
3

>  <ADMET_EXT_CYP2D6>  (56) 
-13.1149940799474

>  <ADMET_EXT_CYP2D6#Prediction>  (56) 
false

>  <ADMET_EXT_CYP2D6_Applicability>  (56) 
OPS PC6 out of range. Value: 4.3876. Training min, max, SD, explained variance: -5.674, 3.9834, 1.993, 0.0519.
Unknown FCFP_2 feature: 1018882710: [*]CS(=O)(=O)O[*]

>  <ADMET_EXT_CYP2D6_Applicability#MD>  (56) 
11.7495949235803

>  <ADMET_EXT_CYP2D6_Applicability#MDpvalue>  (56) 
0.00501939979571631

>  <ADMET_EXT_Hepatotoxic>  (56) 
-7.99810047570902

>  <ADMET_EXT_Hepatotoxic#Prediction>  (56) 
false

>  <ADMET_EXT_Hepatotoxic_Applicability>  (56) 
All properties and OPS components are within expected ranges.
Unknown FCFP_2 feature: 1018882710: [*]CS(=O)(=O)O[*]

>  <ADMET_EXT_Hepatotoxic_Applicability#MD>  (56) 
9.92091121673494

>  <ADMET_EXT_Hepatotoxic_Applicability#MDpvalue>  (56) 
0.106414880653235

>  <ADMET_Absorption_Level>  (56) 
0

>  <ADMET_EXT_PPB>  (56) 
3.60782117305445

>  <ADMET_EXT_PPB#Prediction>  (56) 
true

>  <ADMET_EXT_PPB_Applicability>  (56) 
All properties and OPS components are within expected ranges.

>  <ADMET_EXT_PPB_Applicability#MD>  (56) 
11.6360279440771

>  <ADMET_EXT_PPB_Applicability#MDpvalue>  (56) 
0.196664248921537

>  <ADMET_AlogP98>  (56) 
1.878

>  <ADMET_PSA_2D>  (56) 
85.925

$$$$
Molecule
     RDKit          3D

 21 22  0  0  0  0  0  0  0  0999 V2000
   -1.0062   -2.2389    0.2146 S   0  0  0  0  0  0  0  0  0  0  0  0
   -1.0507   -0.4460    0.0587 N   0  0  0  0  0  0  0  0  0  0  0  0
    0.2733    0.2368   -0.0273 C   0  0  0  0  0  0  0  0  0  0  0  0
    1.5615   -0.5655   -0.1945 C   0  0  0  0  0  0  0  0  0  0  0  0
    2.7810    0.1224   -0.1977 N   0  0  0  0  0  0  0  0  0  0  0  0
   -2.3866    0.3707   -0.0242 C   0  0  0  0  0  0  0  0  0  0  0  0
    0.0430   -2.5970    1.2509 O   0  0  0  0  0  0  0  0  0  0  0  0
   -0.5852   -2.8207   -1.1224 O   0  0  0  0  0  0  0  0  0  0  0  0
    1.5717   -1.7935   -0.2974 O   0  0  0  0  0  0  0  0  0  0  0  0
   -2.5486    1.7420   -0.0139 C   0  0  0  0  0  0  0  0  0  0  0  0
   -2.5018   -3.1290    0.7692 C   0  0  0  0  0  0  0  0  0  0  0  0
    4.0131   -0.6381   -0.3490 C   0  0  0  0  0  0  0  0  0  0  0  0
    2.7676    1.5842   -0.1529 C   0  0  0  0  0  0  0  0  0  0  0  0
   -3.6382   -0.4067   -0.1146 C   0  0  0  0  0  0  0  0  0  0  0  0
   -1.4631    2.8083    0.0711 C   0  0  0  0  0  0  0  0  0  0  0  0
   -3.9040    2.3176   -0.0948 C   0  0  0  0  0  0  0  0  0  0  0  0
    5.2436    0.0769    0.2447 C   0  0  0  0  0  0  0  0  0  0  0  0
    4.0609    2.1960    0.4146 C   0  0  0  0  0  0  0  0  0  0  0  0
   -4.8460    0.1413   -0.1816 C   0  0  0  0  0  0  0  0  0  0  0  0
   -4.9879    1.5619   -0.1668 C   0  0  0  0  0  0  0  0  0  0  0  0
    5.2782    1.5309   -0.2173 C   0  0  0  0  0  0  0  0  0  0  0  0
  2  1  1  0
  3  2  1  0
  4  3  1  0
  5  4  1  0
  6  2  1  0
  7  1  2  0
  8  1  2  0
  9  4  2  0
 10  6  2  0
 11  1  1  0
 12  5  1  0
 13  5  1  0
 14  6  1  0
 15 10  1  0
 16 10  1  0
 17 12  1  0
 18 13  1  0
 19 14  2  0
 20 19  1  0
 21 18  1  0
 20 16  2  0
 21 17  1  0
M  END
>  <Name>  (57) 
Molecule

>  <IDNUMBER>  (57) 
BAS 02196152

>  <Num_H_Acceptors_Lipinski>  (57) 
5

>  <Num_H_Donors_Lipinski>  (57) 
0

>  <Molecular_Weight>  (57) 
310.41178

>  <ALogP>  (57) 
1.616

>  <Num_RotatableBonds>  (57) 
4

>  <Molecular_PolarSurfaceArea>  (57) 
66.06

>  <Num_H_Acceptors>  (57) 
3

>  <Num_H_Donors>  (57) 
0

>  <ADMET_Solubility>  (57) 
-2.778

>  <ADMET_Solubility_Level>  (57) 
3

>  <ADMET_Unknown_AlogP98>  (57) 
0

>  <ADMET_BBB>  (57) 
-0.582

>  <ADMET_BBB_Level>  (57) 
3

>  <ADMET_EXT_CYP2D6>  (57) 
-11.9982917694491

>  <ADMET_EXT_CYP2D6#Prediction>  (57) 
false

>  <ADMET_EXT_CYP2D6_Applicability>  (57) 
All properties and OPS components are within expected ranges.
Unknown FCFP_2 feature: 1018882710: [*]CS(=O)(=O)O[*]

>  <ADMET_EXT_CYP2D6_Applicability#MD>  (57) 
11.9483151251718

>  <ADMET_EXT_CYP2D6_Applicability#MDpvalue>  (57) 
0.0032946522530769

>  <ADMET_EXT_Hepatotoxic>  (57) 
-4.66214774704032

>  <ADMET_EXT_Hepatotoxic#Prediction>  (57) 
false

>  <ADMET_EXT_Hepatotoxic_Applicability>  (57) 
All properties and OPS components are within expected ranges.
Unknown FCFP_2 feature: 1018882710: [*]CS(=O)(=O)O[*]

>  <ADMET_EXT_Hepatotoxic_Applicability#MD>  (57) 
9.34692294109507

>  <ADMET_EXT_Hepatotoxic_Applicability#MDpvalue>  (57) 
0.293100129297008

>  <ADMET_Absorption_Level>  (57) 
0

>  <ADMET_EXT_PPB>  (57) 
0.472946941423122

>  <ADMET_EXT_PPB#Prediction>  (57) 
true

>  <ADMET_EXT_PPB_Applicability>  (57) 
All properties and OPS components are within expected ranges.

>  <ADMET_EXT_PPB_Applicability#MD>  (57) 
11.5963385511117

>  <ADMET_EXT_PPB_Applicability#MDpvalue>  (57) 
0.210957444860188

>  <ADMET_AlogP98>  (57) 
1.616

>  <ADMET_PSA_2D>  (57) 
58.607

$$$$
Molecule
     RDKit          3D

 27 28  0  0  0  0  0  0  0  0999 V2000
   -2.1391   -1.9113    0.1963 S   0  0  0  0  0  0  0  0  0  0  0  0
   -2.2085   -0.1247    0.0295 N   0  0  0  0  0  0  0  0  0  0  0  0
    6.6066    0.4895   -0.0822 C   0  0  0  0  0  0  0  0  0  0  0  0
   -0.9262    0.6711   -0.0309 C   0  0  0  0  0  0  0  0  0  0  0  0
    0.3822   -0.1527   -0.0788 C   0  0  0  0  0  0  0  0  0  0  0  0
    5.2939   -0.2270   -0.0254 C   0  0  0  0  0  0  0  0  0  0  0  0
   -1.2179   -2.2355    1.3587 O   0  0  0  0  0  0  0  0  0  0  0  0
   -1.5459   -2.4829   -1.0789 O   0  0  0  0  0  0  0  0  0  0  0  0
   -3.4577    0.6404   -0.0196 C   0  0  0  0  0  0  0  0  0  0  0  0
    1.5922    0.4507    0.0052 N   0  0  0  0  0  0  0  0  0  0  0  0
    4.1399    0.4496   -0.0448 C   0  0  0  0  0  0  0  0  0  0  0  0
    2.8561   -0.2802    0.0097 C   0  0  0  0  0  0  0  0  0  0  0  0
    0.3215   -1.3725   -0.1983 O   0  0  0  0  0  0  0  0  0  0  0  0
    7.3076    0.0320   -1.1799 F   0  0  0  0  0  0  0  0  0  0  0  0
    7.3508    0.1319    1.0242 F   0  0  0  0  0  0  0  0  0  0  0  0
    6.4308    1.8538   -0.1421 F   0  0  0  0  0  0  0  0  0  0  0  0
   -4.7763    0.0049    0.0073 C   0  0  0  0  0  0  0  0  0  0  0  0
   -3.4081    1.9746   -0.0862 C   0  0  0  0  0  0  0  0  0  0  0  0
   -3.6759   -2.8364    0.5179 C   0  0  0  0  0  0  0  0  0  0  0  0
   -5.8420    2.1642   -0.0895 C   0  0  0  0  0  0  0  0  0  0  0  0
   -5.8983    0.7139   -0.0231 C   0  0  0  0  0  0  0  0  0  0  0  0
   -4.6552    2.7708   -0.1233 C   0  0  0  0  0  0  0  0  0  0  0  0
   -7.0262    2.9203   -0.1165 O   0  0  0  0  0  0  0  0  0  0  0  0
    5.2954   -1.6833    0.0505 C   0  0  0  0  0  0  0  0  0  0  0  0
    4.1471   -2.3450    0.1013 C   0  0  0  0  0  0  0  0  0  0  0  0
    2.8895   -1.6155    0.0821 C   0  0  0  0  0  0  0  0  0  0  0  0
   -8.1838    2.0654   -0.0641 C   0  0  0  0  0  0  0  0  0  0  0  0
  2  1  1  0
  3  6  1  0
  4  2  1  0
  5  4  1  0
  6 11  2  0
  7  1  2  0
  8  1  2  0
  9  2  1  0
 10  5  1  0
 11 12  1  0
 12 10  1  0
 13  5  2  0
 14  3  1  0
 15  3  1  0
 16  3  1  0
 17  9  2  0
 18  9  1  0
 19  1  1  0
 20 22  1  0
 21 17  1  0
 22 18  2  0
 23 20  1  0
 24 25  2  0
 25 26  1  0
 26 12  2  0
 27 23  1  0
 20 21  2  0
 24  6  1  0
M  END
>  <Name>  (58) 
Molecule

>  <IDNUMBER>  (58) 
BAS 02196700

>  <Num_H_Acceptors_Lipinski>  (58) 
6

>  <Num_H_Donors_Lipinski>  (58) 
1

>  <Molecular_Weight>  (58) 
402.38809

>  <ALogP>  (58) 
2.509

>  <Num_RotatableBonds>  (58) 
7

>  <Molecular_PolarSurfaceArea>  (58) 
84.09

>  <Num_H_Acceptors>  (58) 
4

>  <Num_H_Donors>  (58) 
1

>  <ADMET_Solubility>  (58) 
-3.925

>  <ADMET_Solubility_Level>  (58) 
3

>  <ADMET_Unknown_AlogP98>  (58) 
0

>  <ADMET_BBB>  (58) 
-0.597

>  <ADMET_BBB_Level>  (58) 
3

>  <ADMET_EXT_CYP2D6>  (58) 
-7.76014593376242

>  <ADMET_EXT_CYP2D6#Prediction>  (58) 
false

>  <ADMET_EXT_CYP2D6_Applicability>  (58) 
OPS PC6 out of range. Value: 4.0214. Training min, max, SD, explained variance: -5.674, 3.9834, 1.993, 0.0519.
Unknown FCFP_2 feature: 1018882710: [*]CS(=O)(=O)O[*]

>  <ADMET_EXT_CYP2D6_Applicability#MD>  (58) 
11.4869811237062

>  <ADMET_EXT_CYP2D6_Applicability#MDpvalue>  (58) 
0.00860962668163105

>  <ADMET_EXT_Hepatotoxic>  (58) 
-4.93201981982838

>  <ADMET_EXT_Hepatotoxic#Prediction>  (58) 
false

>  <ADMET_EXT_Hepatotoxic_Applicability>  (58) 
All properties and OPS components are within expected ranges.
Unknown FCFP_2 feature: 1018882710: [*]CS(=O)(=O)O[*]

>  <ADMET_EXT_Hepatotoxic_Applicability#MD>  (58) 
9.56620249688665

>  <ADMET_EXT_Hepatotoxic_Applicability#MDpvalue>  (58) 
0.207457430828818

>  <ADMET_Absorption_Level>  (58) 
0

>  <ADMET_EXT_PPB>  (58) 
2.93586394825711

>  <ADMET_EXT_PPB#Prediction>  (58) 
true

>  <ADMET_EXT_PPB_Applicability>  (58) 
All properties and OPS components are within expected ranges.

>  <ADMET_EXT_PPB_Applicability#MD>  (58) 
10.0919864668154

>  <ADMET_EXT_PPB_Applicability#MDpvalue>  (58) 
0.881431120179334

>  <ADMET_AlogP98>  (58) 
2.509

>  <ADMET_PSA_2D>  (58) 
76.995

$$$$
Molecule
     RDKit          3D

 29 30  0  0  0  0  0  0  0  0999 V2000
   -2.7607   -1.6299    0.2238 S   0  0  0  0  0  0  0  0  0  0  0  0
   -2.7296    0.1573    0.0763 N   0  0  0  0  0  0  0  0  0  0  0  0
   -3.9900    1.0005   -0.0046 C   0  0  0  0  0  0  0  0  0  0  0  0
   -1.4106    0.8303    0.0461 C   0  0  0  0  0  0  0  0  0  0  0  0
   -0.1619   -0.0092   -0.1642 C   0  0  0  0  0  0  0  0  0  0  0  0
   -5.2980    0.3272   -0.0682 C   0  0  0  0  0  0  0  0  0  0  0  0
    6.2083   -1.9686   -0.0309 C   0  0  0  0  0  0  0  0  0  0  0  0
   -1.6140   -2.0767    1.1117 O   0  0  0  0  0  0  0  0  0  0  0  0
   -2.5664   -2.2253   -1.1585 O   0  0  0  0  0  0  0  0  0  0  0  0
   -4.0036    2.3634   -0.0262 C   0  0  0  0  0  0  0  0  0  0  0  0
    1.0197    0.5817    0.0638 N   0  0  0  0  0  0  0  0  0  0  0  0
    4.8645   -1.2292   -0.0271 C   0  0  0  0  0  0  0  0  0  0  0  0
   -0.2339   -1.1861   -0.5282 O   0  0  0  0  0  0  0  0  0  0  0  0
    6.1384   -3.2025   -0.0498 O   0  0  0  0  0  0  0  0  0  0  0  0
   -5.2978    3.0806   -0.0970 C   0  0  0  0  0  0  0  0  0  0  0  0
   -6.4479    0.9893   -0.1264 C   0  0  0  0  0  0  0  0  0  0  0  0
    3.7653   -1.9835   -0.0733 C   0  0  0  0  0  0  0  0  0  0  0  0
    4.6911    0.2405    0.0345 C   0  0  0  0  0  0  0  0  0  0  0  0
   -4.2332   -2.3937    0.9847 C   0  0  0  0  0  0  0  0  0  0  0  0
    2.2906   -0.0497   -0.0002 C   0  0  0  0  0  0  0  0  0  0  0  0
    7.5617   -1.4127   -0.0100 O   0  0  0  0  0  0  0  0  0  0  0  0
   -6.4511    2.4272   -0.1423 C   0  0  0  0  0  0  0  0  0  0  0  0
    3.4799    0.7881    0.0490 C   0  0  0  0  0  0  0  0  0  0  0  0
    2.4301   -1.3748   -0.0573 C   0  0  0  0  0  0  0  0  0  0  0  0
   -7.9395    0.1204   -0.1818 Cl  0  0  0  0  0  0  0  0  0  0  0  0
   -2.8365    3.1586    0.0277 O   0  0  0  0  0  0  0  0  0  0  0  0
    7.7586    0.0100    0.0073 C   0  0  0  0  0  0  0  0  0  0  0  0
   -3.1439    4.5628   -0.0072 C   0  0  0  0  0  0  0  0  0  0  0  0
    9.2634    0.3269    0.0174 C   0  0  0  0  0  0  0  0  0  0  0  0
  2  1  1  0
  3  2  1  0
  4  2  1  0
  5  4  1  0
  6  3  2  0
  7 12  1  0
  8  1  2  0
  9  1  2  0
 10  3  1  0
 11  5  1  0
 12 17  2  0
 13  5  2  0
 14  7  2  0
 15 10  2  0
 16  6  1  0
 17 24  1  0
 18 23  2  0
 19  1  1  0
 20 11  1  0
 21  7  1  0
 22 16  2  0
 23 20  1  0
 24 20  2  0
 25 16  1  0
 26 10  1  0
 27 21  1  0
 28 26  1  0
 29 27  1  0
 22 15  1  0
 12 18  1  0
M  END
>  <Name>  (59) 
Molecule

>  <IDNUMBER>  (59) 
BAS 02198424

>  <Num_H_Acceptors_Lipinski>  (59) 
8

>  <Num_H_Donors_Lipinski>  (59) 
1

>  <Molecular_Weight>  (59) 
440.89784

>  <ALogP>  (59) 
2.435

>  <Num_RotatableBonds>  (59) 
9

>  <Molecular_PolarSurfaceArea>  (59) 
110.39

>  <Num_H_Acceptors>  (59) 
6

>  <Num_H_Donors>  (59) 
1

>  <ADMET_Solubility>  (59) 
-3.48

>  <ADMET_Solubility_Level>  (59) 
3

>  <ADMET_Unknown_AlogP98>  (59) 
0

>  <ADMET_BBB>  (59) 
-1.035

>  <ADMET_BBB_Level>  (59) 
3

>  <ADMET_EXT_CYP2D6>  (59) 
-13.1352110837574

>  <ADMET_EXT_CYP2D6#Prediction>  (59) 
false

>  <ADMET_EXT_CYP2D6_Applicability>  (59) 
All properties and OPS components are within expected ranges.
Unknown FCFP_2 feature: 1018882710: [*]CS(=O)(=O)O[*]

>  <ADMET_EXT_CYP2D6_Applicability#MD>  (59) 
16.3555645944615

>  <ADMET_EXT_CYP2D6_Applicability#MDpvalue>  (59) 
5.72994589507714e-08

>  <ADMET_EXT_Hepatotoxic>  (59) 
-4.21252207149309

>  <ADMET_EXT_Hepatotoxic#Prediction>  (59) 
false

>  <ADMET_EXT_Hepatotoxic_Applicability>  (59) 
All properties and OPS components are within expected ranges.
Unknown FCFP_2 feature: 1018882710: [*]CS(=O)(=O)O[*]

>  <ADMET_EXT_Hepatotoxic_Applicability#MD>  (59) 
12.1638611964698

>  <ADMET_EXT_Hepatotoxic_Applicability#MDpvalue>  (59) 
8.18037416572089e-05

>  <ADMET_Absorption_Level>  (59) 
0

>  <ADMET_EXT_PPB>  (59) 
2.80542358826642

>  <ADMET_EXT_PPB#Prediction>  (59) 
true

>  <ADMET_EXT_PPB_Applicability>  (59) 
All properties and OPS components are within expected ranges.

>  <ADMET_EXT_PPB_Applicability#MD>  (59) 
13.0929386917762

>  <ADMET_EXT_PPB_Applicability#MDpvalue>  (59) 
0.00406244531494515

>  <ADMET_AlogP98>  (59) 
2.435

>  <ADMET_PSA_2D>  (59) 
103.226

$$$$
Molecule
     RDKit          3D

 29 31  0  0  0  0  0  0  0  0999 V2000
    0.4216   -1.4847   -0.0086 S   0  0  0  0  0  0  0  0  0  0  0  0
    0.4184    0.3446   -0.0622 N   0  0  0  0  0  0  0  0  0  0  0  0
    1.7131    1.0896   -0.0221 C   0  0  0  0  0  0  0  0  0  0  0  0
    3.0209    0.2755   -0.0581 C   0  0  0  0  0  0  0  0  0  0  0  0
    4.2664    0.9270   -0.0969 N   0  0  0  0  0  0  0  0  0  0  0  0
   -1.0816   -2.5585    0.0899 C   0  0  0  0  0  0  0  0  0  0  0  0
    1.2325   -1.8756    1.2132 O   0  0  0  0  0  0  0  0  0  0  0  0
    1.1953   -1.9818   -1.2157 O   0  0  0  0  0  0  0  0  0  0  0  0
   -0.7679    1.1900   -0.0997 C   0  0  0  0  0  0  0  0  0  0  0  0
    3.0197   -0.9554   -0.0507 O   0  0  0  0  0  0  0  0  0  0  0  0
   -2.2857   -2.1380    0.4671 C   0  0  0  0  0  0  0  0  0  0  0  0
   -0.9301   -3.9860   -0.2428 C   0  0  0  0  0  0  0  0  0  0  0  0
    6.7655    2.1706   -0.2756 O   0  0  0  0  0  0  0  0  0  0  0  0
   -0.6681    2.5156    0.0779 C   0  0  0  0  0  0  0  0  0  0  0  0
   -2.0578    0.6465   -0.3048 C   0  0  0  0  0  0  0  0  0  0  0  0
   -3.0941    2.7894   -0.0645 C   0  0  0  0  0  0  0  0  0  0  0  0
   -3.1601    1.3728   -0.2833 C   0  0  0  0  0  0  0  0  0  0  0  0
   -1.8991    3.3630    0.0952 C   0  0  0  0  0  0  0  0  0  0  0  0
   -1.9774   -4.8128   -0.1906 C   0  0  0  0  0  0  0  0  0  0  0  0
   -3.4382   -3.0268    0.5101 C   0  0  0  0  0  0  0  0  0  0  0  0
   -3.2961   -4.3064    0.1928 C   0  0  0  0  0  0  0  0  0  0  0  0
    5.4695    0.1137   -0.1692 C   0  0  0  0  0  0  0  0  0  0  0  0
    4.3313    2.3772   -0.1622 C   0  0  0  0  0  0  0  0  0  0  0  0
   -4.2912    3.5270   -0.0107 O   0  0  0  0  0  0  0  0  0  0  0  0
    5.7010    2.9199    0.3075 C   0  0  0  0  0  0  0  0  0  0  0  0
    6.7227    0.8733    0.3095 C   0  0  0  0  0  0  0  0  0  0  0  0
   -5.4126    2.6170   -0.1724 C   0  0  0  0  0  0  0  0  0  0  0  0
   -4.4860   -5.2214    0.2265 C   0  0  0  0  0  0  0  0  0  0  0  0
   -6.7533    3.3505   -0.0135 C   0  0  0  0  0  0  0  0  0  0  0  0
  2  1  1  0
  3  2  1  0
  4  3  1  0
  5  4  1  0
  6  1  1  0
  7  1  2  0
  8  1  2  0
  9  2  1  0
 10  4  2  0
 11  6  2  0
 12  6  1  0
 13 25  1  0
 14  9  2  0
 15  9  1  0
 16 18  2  0
 17 15  2  0
 18 14  1  0
 19 12  2  0
 20 11  1  0
 21 19  1  0
 22  5  1  0
 23  5  1  0
 24 16  1  0
 25 23  1  0
 26 22  1  0
 27 24  1  0
 28 21  1  0
 29 27  1  0
 21 20  2  0
 16 17  1  0
 13 26  1  0
M  END
>  <Name>  (60) 
Molecule

>  <IDNUMBER>  (60) 
BAS 02201730

>  <Num_H_Acceptors_Lipinski>  (60) 
7

>  <Num_H_Donors_Lipinski>  (60) 
0

>  <Molecular_Weight>  (60) 
418.50654

>  <ALogP>  (60) 
2.295

>  <Num_RotatableBonds>  (60) 
7

>  <Molecular_PolarSurfaceArea>  (60) 
84.53

>  <Num_H_Acceptors>  (60) 
5

>  <Num_H_Donors>  (60) 
0

>  <ADMET_Solubility>  (60) 
-3.379

>  <ADMET_Solubility_Level>  (60) 
3

>  <ADMET_Unknown_AlogP98>  (60) 
0

>  <ADMET_BBB>  (60) 
-0.655

>  <ADMET_BBB_Level>  (60) 
3

>  <ADMET_EXT_CYP2D6>  (60) 
-16.4738064012045

>  <ADMET_EXT_CYP2D6#Prediction>  (60) 
false

>  <ADMET_EXT_CYP2D6_Applicability>  (60) 
All properties and OPS components are within expected ranges.
Unknown FCFP_2 feature: -1096278874: [*]OS(=O)(=O)[c](:[*]):[*]

>  <ADMET_EXT_CYP2D6_Applicability#MD>  (60) 
14.5523145698098

>  <ADMET_EXT_CYP2D6_Applicability#MDpvalue>  (60) 
6.48975433800955e-06

>  <ADMET_EXT_Hepatotoxic>  (60) 
-5.18978614700063

>  <ADMET_EXT_Hepatotoxic#Prediction>  (60) 
false

>  <ADMET_EXT_Hepatotoxic_Applicability>  (60) 
All properties and OPS components are within expected ranges.
Unknown FCFP_2 feature: -1096278874: [*]OS(=O)(=O)[c](:[*]):[*]

>  <ADMET_EXT_Hepatotoxic_Applicability#MD>  (60) 
11.0542458063255

>  <ADMET_EXT_Hepatotoxic_Applicability#MDpvalue>  (60) 
0.00520820452169046

>  <ADMET_Absorption_Level>  (60) 
0

>  <ADMET_EXT_PPB>  (60) 
5.85873212677808

>  <ADMET_EXT_PPB#Prediction>  (60) 
true

>  <ADMET_EXT_PPB_Applicability>  (60) 
All properties and OPS components are within expected ranges.

>  <ADMET_EXT_PPB_Applicability#MD>  (60) 
11.9428348864324

>  <ADMET_EXT_PPB_Applicability#MDpvalue>  (60) 
0.107327181930925

>  <ADMET_AlogP98>  (60) 
2.295

>  <ADMET_PSA_2D>  (60) 
76.467

$$$$
Molecule
     RDKit          3D

 23 23  0  0  0  0  0  0  0  0999 V2000
    0.2523   -1.8338   -0.0459 S   0  0  0  0  0  0  0  0  0  0  0  0
    0.1171   -0.0628    0.1352 N   0  0  0  0  0  0  0  0  0  0  0  0
   -4.8706    0.0111   -0.1309 C   0  0  0  0  0  0  0  0  0  0  0  0
    1.3445    0.7709    0.2599 C   0  0  0  0  0  0  0  0  0  0  0  0
    2.6956    0.0768    0.0423 C   0  0  0  0  0  0  0  0  0  0  0  0
   -1.1379    0.6788    0.1440 C   0  0  0  0  0  0  0  0  0  0  0  0
   -3.5676    0.7333    0.0124 C   0  0  0  0  0  0  0  0  0  0  0  0
   -2.4374    0.0317    0.0020 C   0  0  0  0  0  0  0  0  0  0  0  0
    0.9013   -2.1190   -1.3880 O   0  0  0  0  0  0  0  0  0  0  0  0
    1.1564   -2.3547    1.0558 O   0  0  0  0  0  0  0  0  0  0  0  0
    3.8149    0.8312    0.0983 N   0  0  0  0  0  0  0  0  0  0  0  0
    2.7458   -1.1296   -0.1805 O   0  0  0  0  0  0  0  0  0  0  0  0
    5.2261    0.3825   -0.0799 C   0  0  0  0  0  0  0  0  0  0  0  0
   -5.3087   -0.3241    1.1332 F   0  0  0  0  0  0  0  0  0  0  0  0
   -5.8159    0.8310   -0.7087 F   0  0  0  0  0  0  0  0  0  0  0  0
   -4.6879   -1.1591   -0.8399 F   0  0  0  0  0  0  0  0  0  0  0  0
   -1.2666   -2.8387    0.0395 C   0  0  0  0  0  0  0  0  0  0  0  0
   -1.1039    2.0024    0.2830 C   0  0  0  0  0  0  0  0  0  0  0  0
   -3.5257    2.1798    0.1655 C   0  0  0  0  0  0  0  0  0  0  0  0
   -2.3496    2.7906    0.2949 C   0  0  0  0  0  0  0  0  0  0  0  0
    5.9325    0.4604    1.2857 C   0  0  0  0  0  0  0  0  0  0  0  0
    5.4301   -1.0430   -0.6581 C   0  0  0  0  0  0  0  0  0  0  0  0
    5.9236    1.3815   -1.0184 C   0  0  0  0  0  0  0  0  0  0  0  0
  2  1  1  0
  3  7  1  0
  4  2  1  0
  5  4  1  0
  6  2  1  0
  7  8  1  0
  8  6  2  0
  9  1  2  0
 10  1  2  0
 11  5  1  0
 12  5  2  0
 13 11  1  0
 14  3  1  0
 15  3  1  0
 16  3  1  0
 17  1  1  0
 18  6  1  0
 19 20  1  0
 20 18  2  0
 21 13  1  0
 22 13  1  0
 23 13  1  0
 19  7  2  0
M  END
>  <Name>  (61) 
Molecule

>  <IDNUMBER>  (61) 
BAS 02202738

>  <Num_H_Acceptors_Lipinski>  (61) 
5

>  <Num_H_Donors_Lipinski>  (61) 
1

>  <Molecular_Weight>  (61) 
352.37247

>  <ALogP>  (61) 
1.88

>  <Num_RotatableBonds>  (61) 
6

>  <Molecular_PolarSurfaceArea>  (61) 
74.86

>  <Num_H_Acceptors>  (61) 
3

>  <Num_H_Donors>  (61) 
1

>  <ADMET_Solubility>  (61) 
-3.332

>  <ADMET_Solubility_Level>  (61) 
3

>  <ADMET_Unknown_AlogP98>  (61) 
0

>  <ADMET_BBB>  (61) 
-0.65

>  <ADMET_BBB_Level>  (61) 
3

>  <ADMET_EXT_CYP2D6>  (61) 
-8.3369948495371

>  <ADMET_EXT_CYP2D6#Prediction>  (61) 
false

>  <ADMET_EXT_CYP2D6_Applicability>  (61) 
All properties and OPS components are within expected ranges.
Unknown FCFP_2 feature: 1018882710: [*]CS(=O)(=O)O[*]

>  <ADMET_EXT_CYP2D6_Applicability#MD>  (61) 
11.0663637662496

>  <ADMET_EXT_CYP2D6_Applicability#MDpvalue>  (61) 
0.019552877682999

>  <ADMET_EXT_Hepatotoxic>  (61) 
-6.49243697642948

>  <ADMET_EXT_Hepatotoxic#Prediction>  (61) 
false

>  <ADMET_EXT_Hepatotoxic_Applicability>  (61) 
All properties and OPS components are within expected ranges.
Unknown FCFP_2 feature: 1018882710: [*]CS(=O)(=O)O[*]

>  <ADMET_EXT_Hepatotoxic_Applicability#MD>  (61) 
8.48491597761363

>  <ADMET_EXT_Hepatotoxic_Applicability#MDpvalue>  (61) 
0.711638319473179

>  <ADMET_Absorption_Level>  (61) 
0

>  <ADMET_EXT_PPB>  (61) 
2.55245388916479

>  <ADMET_EXT_PPB#Prediction>  (61) 
true

>  <ADMET_EXT_PPB_Applicability>  (61) 
All properties and OPS components are within expected ranges.

>  <ADMET_EXT_PPB_Applicability#MD>  (61) 
10.8398567006318

>  <ADMET_EXT_PPB_Applicability#MDpvalue>  (61) 
0.570356286603709

>  <ADMET_AlogP98>  (61) 
1.88

>  <ADMET_PSA_2D>  (61) 
68.065

$$$$
Molecule
     RDKit          3D

 25 26  0  0  0  0  0  0  0  0999 V2000
   -1.8547   -2.5148   -0.2448 S   0  0  0  0  0  0  0  0  0  0  0  0
   -1.8313   -0.7629    0.1644 N   0  0  0  0  0  0  0  0  0  0  0  0
   -3.0879    0.1394    0.1226 C   0  0  0  0  0  0  0  0  0  0  0  0
   -0.5968   -0.3041    0.8560 C   0  0  0  0  0  0  0  0  0  0  0  0
    0.7173   -0.9362    0.3692 C   0  0  0  0  0  0  0  0  0  0  0  0
   -1.0455   -2.7106   -1.5133 O   0  0  0  0  0  0  0  0  0  0  0  0
   -1.1622   -3.2539    0.8861 O   0  0  0  0  0  0  0  0  0  0  0  0
   -3.1971    1.5132   -0.0613 C   0  0  0  0  0  0  0  0  0  0  0  0
    1.8780   -0.2923    0.4993 N   0  0  0  0  0  0  0  0  0  0  0  0
    0.7401   -2.0467   -0.1608 O   0  0  0  0  0  0  0  0  0  0  0  0
   -3.4392   -3.3728   -0.5395 C   0  0  0  0  0  0  0  0  0  0  0  0
    3.0615   -0.9726    0.0297 C   0  0  0  0  0  0  0  0  0  0  0  0
   -2.2072    2.5769   -0.3324 O   0  0  0  0  0  0  0  0  0  0  0  0
   -4.3689   -0.5730    0.3322 C   0  0  0  0  0  0  0  0  0  0  0  0
    4.2930   -0.1058    0.0211 C   0  0  0  0  0  0  0  0  0  0  0  0
   -4.5514    2.1196    0.0010 C   0  0  0  0  0  0  0  0  0  0  0  0
   -0.8543    2.3461   -0.6724 C   0  0  0  0  0  0  0  0  0  0  0  0
    5.4833   -0.6840   -0.1380 C   0  0  0  0  0  0  0  0  0  0  0  0
    4.2031    1.3488    0.1839 C   0  0  0  0  0  0  0  0  0  0  0  0
   -5.5581    0.0125    0.3627 C   0  0  0  0  0  0  0  0  0  0  0  0
   -0.0198    3.6063   -0.3956 C   0  0  0  0  0  0  0  0  0  0  0  0
   -5.6551    1.4162    0.1946 C   0  0  0  0  0  0  0  0  0  0  0  0
    6.7033    0.1224   -0.1457 C   0  0  0  0  0  0  0  0  0  0  0  0
    5.3155    2.0857    0.1722 C   0  0  0  0  0  0  0  0  0  0  0  0
    6.6255    1.4431    0.0020 C   0  0  0  0  0  0  0  0  0  0  0  0
  2  1  1  0
  3  2  1  0
  4  2  1  0
  5  4  1  0
  6  1  2  0
  7  1  2  0
  8  3  2  0
  9  5  1  0
 10  5  2  0
 11  1  1  0
 12  9  1  0
 13  8  1  0
 14  3  1  0
 15 12  1  0
 16  8  1  0
 17 13  1  0
 18 15  2  0
 19 15  1  0
 20 14  2  0
 21 17  1  0
 22 20  1  0
 23 18  1  0
 24 19  2  0
 25 24  1  0
 22 16  2  0
 25 23  2  0
M  END
>  <Name>  (62) 
Molecule

>  <IDNUMBER>  (62) 
BAS 02205196

>  <Num_H_Acceptors_Lipinski>  (62) 
6

>  <Num_H_Donors_Lipinski>  (62) 
1

>  <Molecular_Weight>  (62) 
362.44328

>  <ALogP>  (62) 
1.922

>  <Num_RotatableBonds>  (62) 
8

>  <Molecular_PolarSurfaceArea>  (62) 
84.09

>  <Num_H_Acceptors>  (62) 
4

>  <Num_H_Donors>  (62) 
1

>  <ADMET_Solubility>  (62) 
-2.808

>  <ADMET_Solubility_Level>  (62) 
3

>  <ADMET_Unknown_AlogP98>  (62) 
0

>  <ADMET_BBB>  (62) 
-0.778

>  <ADMET_BBB_Level>  (62) 
3

>  <ADMET_EXT_CYP2D6>  (62) 
-7.56276286647594

>  <ADMET_EXT_CYP2D6#Prediction>  (62) 
false

>  <ADMET_EXT_CYP2D6_Applicability>  (62) 
All properties and OPS components are within expected ranges.
Unknown FCFP_2 feature: 1018882710: [*]CS(=O)(=O)O[*]

>  <ADMET_EXT_CYP2D6_Applicability#MD>  (62) 
12.2331394658324

>  <ADMET_EXT_CYP2D6_Applicability#MDpvalue>  (62) 
0.00177062967139344

>  <ADMET_EXT_Hepatotoxic>  (62) 
-5.06266294659622

>  <ADMET_EXT_Hepatotoxic#Prediction>  (62) 
false

>  <ADMET_EXT_Hepatotoxic_Applicability>  (62) 
All properties and OPS components are within expected ranges.
Unknown FCFP_2 feature: 1018882710: [*]CS(=O)(=O)O[*]

>  <ADMET_EXT_Hepatotoxic_Applicability#MD>  (62) 
10.6234720628362

>  <ADMET_EXT_Hepatotoxic_Applicability#MDpvalue>  (62) 
0.0191396375529705

>  <ADMET_Absorption_Level>  (62) 
0

>  <ADMET_EXT_PPB>  (62) 
-0.751445835780745

>  <ADMET_EXT_PPB#Prediction>  (62) 
true

>  <ADMET_EXT_PPB_Applicability>  (62) 
All properties and OPS components are within expected ranges.

>  <ADMET_EXT_PPB_Applicability#MD>  (62) 
11.3876437385771

>  <ADMET_EXT_PPB_Applicability#MDpvalue>  (62) 
0.295950324814716

>  <ADMET_AlogP98>  (62) 
1.922

>  <ADMET_PSA_2D>  (62) 
76.995

$$$$
Molecule
     RDKit          3D

 28 29  0  0  0  0  0  0  0  0999 V2000
   -2.0425   -2.1243    0.1671 S   0  0  0  0  0  0  0  0  0  0  0  0
   -2.1531   -0.3367    0.0665 N   0  0  0  0  0  0  0  0  0  0  0  0
    4.2053    0.2221    0.0028 C   0  0  0  0  0  0  0  0  0  0  0  0
   -0.8959    0.4968    0.0688 C   0  0  0  0  0  0  0  0  0  0  0  0
    0.4068   -0.2924   -0.1463 C   0  0  0  0  0  0  0  0  0  0  0  0
    2.8716   -0.4759    0.0264 C   0  0  0  0  0  0  0  0  0  0  0  0
   -3.4190    0.3883    0.0091 C   0  0  0  0  0  0  0  0  0  0  0  0
    4.2510    1.7654    0.0201 C   0  0  0  0  0  0  0  0  0  0  0  0
    1.6184    0.2693    0.1132 N   0  0  0  0  0  0  0  0  0  0  0  0
   -4.7198   -0.2895   -0.0238 C   0  0  0  0  0  0  0  0  0  0  0  0
   -1.6681   -2.6556   -1.2047 O   0  0  0  0  0  0  0  0  0  0  0  0
   -0.9427   -2.4860    1.1487 O   0  0  0  0  0  0  0  0  0  0  0  0
    3.1574    2.3416    0.0364 O   0  0  0  0  0  0  0  0  0  0  0  0
    0.3362   -1.4483   -0.5592 O   0  0  0  0  0  0  0  0  0  0  0  0
   -3.5089   -3.0472    0.7372 C   0  0  0  0  0  0  0  0  0  0  0  0
   -5.8633    0.3862   -0.0558 C   0  0  0  0  0  0  0  0  0  0  0  0
    5.4366    2.6558    0.0147 O   0  0  0  0  0  0  0  0  0  0  0  0
    5.3039   -0.5458   -0.0392 C   0  0  0  0  0  0  0  0  0  0  0  0
   -3.4040    1.7228   -0.0053 C   0  0  0  0  0  0  0  0  0  0  0  0
   -7.0766   -0.3254   -0.0721 O   0  0  0  0  0  0  0  0  0  0  0  0
    2.8481   -1.8113    0.0108 C   0  0  0  0  0  0  0  0  0  0  0  0
   -4.6648    2.4852   -0.0490 C   0  0  0  0  0  0  0  0  0  0  0  0
   -5.8357    1.8493   -0.0693 C   0  0  0  0  0  0  0  0  0  0  0  0
    6.7837    2.1143   -0.0017 C   0  0  0  0  0  0  0  0  0  0  0  0
   -8.2031    0.5586   -0.0939 C   0  0  0  0  0  0  0  0  0  0  0  0
    5.2369   -1.9968   -0.0619 C   0  0  0  0  0  0  0  0  0  0  0  0
    4.0603   -2.6026   -0.0408 C   0  0  0  0  0  0  0  0  0  0  0  0
    7.8210    3.2513   -0.0005 C   0  0  0  0  0  0  0  0  0  0  0  0
  2  1  1  0
  3  6  2  0
  4  2  1  0
  5  4  1  0
  6  9  1  0
  7  2  1  0
  8  3  1  0
  9  5  1  0
 10  7  2  0
 11  1  2  0
 12  1  2  0
 13  8  2  0
 14  5  2  0
 15  1  1  0
 16 10  1  0
 17  8  1  0
 18  3  1  0
 19  7  1  0
 20 16  1  0
 21  6  1  0
 22 19  2  0
 23 22  1  0
 24 17  1  0
 25 20  1  0
 26 27  1  0
 27 21  2  0
 28 24  1  0
 23 16  2  0
 26 18  2  0
M  END
>  <Name>  (63) 
Molecule

>  <IDNUMBER>  (63) 
BAS 02205319

>  <Num_H_Acceptors_Lipinski>  (63) 
8

>  <Num_H_Donors_Lipinski>  (63) 
1

>  <Molecular_Weight>  (63) 
406.45278

>  <ALogP>  (63) 
1.771

>  <Num_RotatableBonds>  (63) 
9

>  <Molecular_PolarSurfaceArea>  (63) 
110.39

>  <Num_H_Acceptors>  (63) 
6

>  <Num_H_Donors>  (63) 
1

>  <ADMET_Solubility>  (63) 
-2.844

>  <ADMET_Solubility_Level>  (63) 
3

>  <ADMET_Unknown_AlogP98>  (63) 
0

>  <ADMET_BBB>  (63) 
-1.24

>  <ADMET_BBB_Level>  (63) 
3

>  <ADMET_EXT_CYP2D6>  (63) 
-13.6501715146618

>  <ADMET_EXT_CYP2D6#Prediction>  (63) 
false

>  <ADMET_EXT_CYP2D6_Applicability>  (63) 
All properties and OPS components are within expected ranges.
Unknown FCFP_2 feature: 1018882710: [*]CS(=O)(=O)O[*]

>  <ADMET_EXT_CYP2D6_Applicability#MD>  (63) 
14.8482670492536

>  <ADMET_EXT_CYP2D6_Applicability#MDpvalue>  (63) 
3.02559894134845e-06

>  <ADMET_EXT_Hepatotoxic>  (63) 
-6.50738613615472

>  <ADMET_EXT_Hepatotoxic#Prediction>  (63) 
false

>  <ADMET_EXT_Hepatotoxic_Applicability>  (63) 
All properties and OPS components are within expected ranges.
Unknown FCFP_2 feature: 1018882710: [*]CS(=O)(=O)O[*]

>  <ADMET_EXT_Hepatotoxic_Applicability#MD>  (63) 
10.4941439303991

>  <ADMET_EXT_Hepatotoxic_Applicability#MDpvalue>  (63) 
0.027279450737498

>  <ADMET_Absorption_Level>  (63) 
0

>  <ADMET_EXT_PPB>  (63) 
1.76435978279945

>  <ADMET_EXT_PPB#Prediction>  (63) 
true

>  <ADMET_EXT_PPB_Applicability>  (63) 
All properties and OPS components are within expected ranges.

>  <ADMET_EXT_PPB_Applicability#MD>  (63) 
12.3458947506578

>  <ADMET_EXT_PPB_Applicability#MDpvalue>  (63) 
0.0407863208278254

>  <ADMET_AlogP98>  (63) 
1.771

>  <ADMET_PSA_2D>  (63) 
103.226

$$$$
Molecule
     RDKit          3D

 28 29  0  0  0  0  0  0  0  0999 V2000
    0.4436   -1.2698   -0.0756 S   0  0  0  0  0  0  0  0  0  0  0  0
    0.4647    0.5664    0.0493 N   0  0  0  0  0  0  0  0  0  0  0  0
    1.7692    1.2853    0.1489 C   0  0  0  0  0  0  0  0  0  0  0  0
   -1.0662   -2.3566   -0.0655 C   0  0  0  0  0  0  0  0  0  0  0  0
    1.1679   -1.6272   -1.3603 O   0  0  0  0  0  0  0  0  0  0  0  0
    1.3015   -1.8053    1.0563 O   0  0  0  0  0  0  0  0  0  0  0  0
    3.0637    0.4664    0.0277 C   0  0  0  0  0  0  0  0  0  0  0  0
   -0.7073    1.4363    0.0617 C   0  0  0  0  0  0  0  0  0  0  0  0
    3.0509   -0.7513   -0.1583 O   0  0  0  0  0  0  0  0  0  0  0  0
   -2.3105   -1.9242   -0.2287 C   0  0  0  0  0  0  0  0  0  0  0  0
   -0.8769   -3.8065    0.1123 C   0  0  0  0  0  0  0  0  0  0  0  0
   -0.5833    2.7709    0.1671 C   0  0  0  0  0  0  0  0  0  0  0  0
   -1.9997    0.9157   -0.0360 C   0  0  0  0  0  0  0  0  0  0  0  0
    4.2459    1.0731    0.1181 N   0  0  0  0  0  0  0  0  0  0  0  0
   -3.0147    3.0645    0.0854 C   0  0  0  0  0  0  0  0  0  0  0  0
   -1.8105    3.6336    0.1797 C   0  0  0  0  0  0  0  0  0  0  0  0
   -3.0950    1.6456   -0.0276 C   0  0  0  0  0  0  0  0  0  0  0  0
   -1.9274   -4.6333    0.1188 C   0  0  0  0  0  0  0  0  0  0  0  0
   -3.4596   -2.8040   -0.2150 C   0  0  0  0  0  0  0  0  0  0  0  0
   -3.2846   -4.1047   -0.0480 C   0  0  0  0  0  0  0  0  0  0  0  0
   -4.2103    3.8073    0.0950 O   0  0  0  0  0  0  0  0  0  0  0  0
    7.8689    0.3570   -0.0445 O   0  0  0  0  0  0  0  0  0  0  0  0
    5.4466    0.2830    0.0007 C   0  0  0  0  0  0  0  0  0  0  0  0
    6.6988    1.1778    0.0733 C   0  0  0  0  0  0  0  0  0  0  0  0
   -5.3331    2.8862   -0.0187 C   0  0  0  0  0  0  0  0  0  0  0  0
   -4.4746   -5.0182   -0.0306 C   0  0  0  0  0  0  0  0  0  0  0  0
    9.0416    1.1735    0.0130 C   0  0  0  0  0  0  0  0  0  0  0  0
   -6.6767    3.6295    0.0001 C   0  0  0  0  0  0  0  0  0  0  0  0
  2  1  1  0
  3  2  1  0
  4  1  1  0
  5  1  2  0
  6  1  2  0
  7  3  1  0
  8  2  1  0
  9  7  2  0
 10  4  2  0
 11  4  1  0
 12  8  2  0
 13  8  1  0
 14  7  1  0
 15 16  2  0
 16 12  1  0
 17 13  2  0
 18 11  2  0
 19 10  1  0
 20 19  2  0
 21 15  1  0
 22 24  1  0
 23 14  1  0
 24 23  1  0
 25 21  1  0
 26 20  1  0
 27 22  1  0
 28 25  1  0
 20 18  1  0
 15 17  1  0
M  END
>  <Name>  (64) 
Molecule

>  <IDNUMBER>  (64) 
BAS 02207501

>  <Num_H_Acceptors_Lipinski>  (64) 
7

>  <Num_H_Donors_Lipinski>  (64) 
1

>  <Molecular_Weight>  (64) 
406.49584

>  <ALogP>  (64) 
2.271

>  <Num_RotatableBonds>  (64) 
10

>  <Molecular_PolarSurfaceArea>  (64) 
93.32

>  <Num_H_Acceptors>  (64) 
5

>  <Num_H_Donors>  (64) 
1

>  <ADMET_Solubility>  (64) 
-3.059

>  <ADMET_Solubility_Level>  (64) 
3

>  <ADMET_Unknown_AlogP98>  (64) 
0

>  <ADMET_BBB>  (64) 
-0.812

>  <ADMET_BBB_Level>  (64) 
3

>  <ADMET_EXT_CYP2D6>  (64) 
-16.1612903821974

>  <ADMET_EXT_CYP2D6#Prediction>  (64) 
false

>  <ADMET_EXT_CYP2D6_Applicability>  (64) 
All properties and OPS components are within expected ranges.
Unknown FCFP_2 feature: -1096278874: [*]OS(=O)(=O)[c](:[*]):[*]

>  <ADMET_EXT_CYP2D6_Applicability#MD>  (64) 
16.677862950708

>  <ADMET_EXT_CYP2D6_Applicability#MDpvalue>  (64) 
2.42806897175874e-08

>  <ADMET_EXT_Hepatotoxic>  (64) 
-4.48109498574815

>  <ADMET_EXT_Hepatotoxic#Prediction>  (64) 
false

>  <ADMET_EXT_Hepatotoxic_Applicability>  (64) 
OPS PC11 out of range. Value: 4.2595. Training min, max, SD, explained variance: -4.0074, 4.0205, 1.463, 0.0267.
Unknown FCFP_2 feature: -1096278874: [*]OS(=O)(=O)[c](:[*]):[*]

>  <ADMET_EXT_Hepatotoxic_Applicability#MD>  (64) 
12.9847404323367

>  <ADMET_EXT_Hepatotoxic_Applicability#MDpvalue>  (64) 
1.95209356525406e-06

>  <ADMET_Absorption_Level>  (64) 
0

>  <ADMET_EXT_PPB>  (64) 
4.23032333438098

>  <ADMET_EXT_PPB#Prediction>  (64) 
true

>  <ADMET_EXT_PPB_Applicability>  (64) 
All properties and OPS components are within expected ranges.

>  <ADMET_EXT_PPB_Applicability#MD>  (64) 
12.6132208354273

>  <ADMET_EXT_PPB_Applicability#MDpvalue>  (64) 
0.0192774232490135

>  <ADMET_AlogP98>  (64) 
2.271

>  <ADMET_PSA_2D>  (64) 
85.925

$$$$
Molecule
     RDKit          3D

 22 23  0  0  0  0  0  0  0  0999 V2000
   -0.8069   -0.3845   -0.0577 N   0  0  0  0  0  0  0  0  0  0  0  0
   -0.6304   -2.0499    0.5641 S   0  0  0  0  0  0  0  0  0  0  0  0
    0.4407    0.3301   -0.4819 C   0  0  0  0  0  0  0  0  0  0  0  0
    1.7464   -0.4426   -0.4907 C   0  0  0  0  0  0  0  0  0  0  0  0
   -2.1802    0.3362   -0.0896 C   0  0  0  0  0  0  0  0  0  0  0  0
    2.9442    0.2393   -0.2266 N   0  0  0  0  0  0  0  0  0  0  0  0
   -0.5958   -3.0251   -0.5995 O   0  0  0  0  0  0  0  0  0  0  0  0
    0.6692   -2.1834    1.3368 O   0  0  0  0  0  0  0  0  0  0  0  0
    1.7719   -1.6638   -0.6785 O   0  0  0  0  0  0  0  0  0  0  0  0
   -3.4467   -0.3965   -0.5704 C   0  0  0  0  0  0  0  0  0  0  0  0
   -2.3655    1.6553    0.2749 C   0  0  0  0  0  0  0  0  0  0  0  0
    5.3099    1.5874    0.4086 O   0  0  0  0  0  0  0  0  0  0  0  0
   -1.9076   -2.5329    1.7716 C   0  0  0  0  0  0  0  0  0  0  0  0
    2.9053    1.6690    0.0411 C   0  0  0  0  0  0  0  0  0  0  0  0
    4.1778   -0.5144   -0.1107 C   0  0  0  0  0  0  0  0  0  0  0  0
   -4.7703    1.5748   -0.1571 C   0  0  0  0  0  0  0  0  0  0  0  0
   -3.7061    2.2520    0.2366 C   0  0  0  0  0  0  0  0  0  0  0  0
   -4.6288    0.2123   -0.5818 C   0  0  0  0  0  0  0  0  0  0  0  0
    4.2693    2.3436   -0.2037 C   0  0  0  0  0  0  0  0  0  0  0  0
    5.4244    0.3702   -0.3256 C   0  0  0  0  0  0  0  0  0  0  0  0
   -1.2959    2.6007    0.7992 C   0  0  0  0  0  0  0  0  0  0  0  0
   -3.4221   -1.7979   -1.1123 C   0  0  0  0  0  0  0  0  0  0  0  0
  2  1  1  0
  3  1  1  0
  4  3  1  0
  5  1  1  0
  6  4  1  0
  7  2  2  0
  8  2  2  0
  9  4  2  0
 10  5  2  0
 11  5  1  0
 12 19  1  0
 13  2  1  0
 14  6  1  0
 15  6  1  0
 16 18  2  0
 17 11  2  0
 18 10  1  0
 19 14  1  0
 20 15  1  0
 21 11  1  0
 22 10  1  0
 16 17  1  0
 12 20  1  0
M  END
>  <Name>  (65) 
Molecule

>  <IDNUMBER>  (65) 
BAS 02208317

>  <Num_H_Acceptors_Lipinski>  (65) 
6

>  <Num_H_Donors_Lipinski>  (65) 
0

>  <Molecular_Weight>  (65) 
326.41118

>  <ALogP>  (65) 
0.872

>  <Num_RotatableBonds>  (65) 
4

>  <Molecular_PolarSurfaceArea>  (65) 
75.3

>  <Num_H_Acceptors>  (65) 
4

>  <Num_H_Donors>  (65) 
0

>  <ADMET_Solubility>  (65) 
-2.215

>  <ADMET_Solubility_Level>  (65) 
3

>  <ADMET_Unknown_AlogP98>  (65) 
0

>  <ADMET_BBB>  (65) 
-0.953

>  <ADMET_BBB_Level>  (65) 
3

>  <ADMET_EXT_CYP2D6>  (65) 
-12.2529322329717

>  <ADMET_EXT_CYP2D6#Prediction>  (65) 
false

>  <ADMET_EXT_CYP2D6_Applicability>  (65) 
All properties and OPS components are within expected ranges.
Unknown FCFP_2 feature: 1018882710: [*]CS(=O)(=O)O[*]

>  <ADMET_EXT_CYP2D6_Applicability#MD>  (65) 
12.8080235762377

>  <ADMET_EXT_CYP2D6_Applicability#MDpvalue>  (65) 
0.000478295986710464

>  <ADMET_EXT_Hepatotoxic>  (65) 
-4.44980908799821

>  <ADMET_EXT_Hepatotoxic#Prediction>  (65) 
false

>  <ADMET_EXT_Hepatotoxic_Applicability>  (65) 
All properties and OPS components are within expected ranges.
Unknown FCFP_2 feature: 1018882710: [*]CS(=O)(=O)O[*]

>  <ADMET_EXT_Hepatotoxic_Applicability#MD>  (65) 
10.2412765900842

>  <ADMET_EXT_Hepatotoxic_Applicability#MDpvalue>  (65) 
0.0518914004195884

>  <ADMET_Absorption_Level>  (65) 
0

>  <ADMET_EXT_PPB>  (65) 
-1.92407224025978

>  <ADMET_EXT_PPB#Prediction>  (65) 
true

>  <ADMET_EXT_PPB_Applicability>  (65) 
OPS PC31 out of range. Value: 3.1924. Training min, max, SD, explained variance: -5.2251, 3.1286, 1.044, 0.0090.

>  <ADMET_EXT_PPB_Applicability#MD>  (65) 
14.5183242163149

>  <ADMET_EXT_PPB_Applicability#MDpvalue>  (65) 
8.64240979831564e-06

>  <ADMET_AlogP98>  (65) 
0.872

>  <ADMET_PSA_2D>  (65) 
67.537

$$$$
Molecule
     RDKit          3D

 28 29  0  0  0  0  0  0  0  0999 V2000
   -2.1013   -2.2734   -0.1732 S   0  0  0  0  0  0  0  0  0  0  0  0
   -2.1889   -0.4812   -0.0246 N   0  0  0  0  0  0  0  0  0  0  0  0
    4.2253    0.0595    0.0096 C   0  0  0  0  0  0  0  0  0  0  0  0
   -0.9099    0.3373    0.0208 C   0  0  0  0  0  0  0  0  0  0  0  0
    0.4043   -0.4760    0.0899 C   0  0  0  0  0  0  0  0  0  0  0  0
    2.8880   -0.6325    0.0086 C   0  0  0  0  0  0  0  0  0  0  0  0
    4.2604    1.6059    0.0158 C   0  0  0  0  0  0  0  0  0  0  0  0
    1.6251    0.1189   -0.0084 N   0  0  0  0  0  0  0  0  0  0  0  0
   -1.1769   -2.6001   -1.3322 O   0  0  0  0  0  0  0  0  0  0  0  0
   -1.5031   -2.8278    1.1074 O   0  0  0  0  0  0  0  0  0  0  0  0
   -3.4488    0.2657    0.0214 C   0  0  0  0  0  0  0  0  0  0  0  0
    0.3345   -1.6915    0.2382 O   0  0  0  0  0  0  0  0  0  0  0  0
    3.1702    2.1777    0.0283 O   0  0  0  0  0  0  0  0  0  0  0  0
   -3.4196    1.5998    0.0853 C   0  0  0  0  0  0  0  0  0  0  0  0
   -4.7580   -0.3901   -0.0065 C   0  0  0  0  0  0  0  0  0  0  0  0
   -3.6274   -3.2222   -0.4823 C   0  0  0  0  0  0  0  0  0  0  0  0
    5.4475    2.4960    0.0108 O   0  0  0  0  0  0  0  0  0  0  0  0
   -5.8564    1.7520    0.0844 C   0  0  0  0  0  0  0  0  0  0  0  0
   -5.8909    0.3014    0.0205 C   0  0  0  0  0  0  0  0  0  0  0  0
   -4.6789    2.3766    0.1191 C   0  0  0  0  0  0  0  0  0  0  0  0
    5.3205   -0.7023    0.0067 C   0  0  0  0  0  0  0  0  0  0  0  0
   -7.0516    2.4903    0.1080 O   0  0  0  0  0  0  0  0  0  0  0  0
    2.8749   -1.9740    0.0027 C   0  0  0  0  0  0  0  0  0  0  0  0
    6.7947    1.9576   -0.0051 C   0  0  0  0  0  0  0  0  0  0  0  0
   -8.1964    1.6185    0.0544 C   0  0  0  0  0  0  0  0  0  0  0  0
    5.2621   -2.1546    0.0036 C   0  0  0  0  0  0  0  0  0  0  0  0
    4.0869   -2.7618    0.0031 C   0  0  0  0  0  0  0  0  0  0  0  0
    7.8297    3.0955   -0.0080 C   0  0  0  0  0  0  0  0  0  0  0  0
  2  1  1  0
  3  6  2  0
  4  2  1  0
  5  4  1  0
  6  8  1  0
  7  3  1  0
  8  5  1  0
  9  1  2  0
 10  1  2  0
 11  2  1  0
 12  5  2  0
 13  7  2  0
 14 11  2  0
 15 11  1  0
 16  1  1  0
 17  7  1  0
 18 19  1  0
 19 15  2  0
 20 14  1  0
 21  3  1  0
 22 18  1  0
 23  6  1  0
 24 17  1  0
 25 22  1  0
 26 27  1  0
 27 23  2  0
 28 24  1  0
 18 20  2  0
 26 21  2  0
M  END
>  <Name>  (66) 
Molecule

>  <IDNUMBER>  (66) 
BAS 02208836

>  <Num_H_Acceptors_Lipinski>  (66) 
8

>  <Num_H_Donors_Lipinski>  (66) 
1

>  <Molecular_Weight>  (66) 
406.45278

>  <ALogP>  (66) 
1.771

>  <Num_RotatableBonds>  (66) 
9

>  <Molecular_PolarSurfaceArea>  (66) 
110.39

>  <Num_H_Acceptors>  (66) 
6

>  <Num_H_Donors>  (66) 
1

>  <ADMET_Solubility>  (66) 
-2.824

>  <ADMET_Solubility_Level>  (66) 
3

>  <ADMET_Unknown_AlogP98>  (66) 
0

>  <ADMET_BBB>  (66) 
-1.24

>  <ADMET_BBB_Level>  (66) 
3

>  <ADMET_EXT_CYP2D6>  (66) 
-13.6501715146618

>  <ADMET_EXT_CYP2D6#Prediction>  (66) 
false

>  <ADMET_EXT_CYP2D6_Applicability>  (66) 
All properties and OPS components are within expected ranges.
Unknown FCFP_2 feature: 1018882710: [*]CS(=O)(=O)O[*]

>  <ADMET_EXT_CYP2D6_Applicability#MD>  (66) 
14.8482670492536

>  <ADMET_EXT_CYP2D6_Applicability#MDpvalue>  (66) 
3.02559894134845e-06

>  <ADMET_EXT_Hepatotoxic>  (66) 
-5.91999248674521

>  <ADMET_EXT_Hepatotoxic#Prediction>  (66) 
false

>  <ADMET_EXT_Hepatotoxic_Applicability>  (66) 
All properties and OPS components are within expected ranges.
Unknown FCFP_2 feature: 1018882710: [*]CS(=O)(=O)O[*]

>  <ADMET_EXT_Hepatotoxic_Applicability#MD>  (66) 
10.4941439303991

>  <ADMET_EXT_Hepatotoxic_Applicability#MDpvalue>  (66) 
0.027279450737498

>  <ADMET_Absorption_Level>  (66) 
0

>  <ADMET_EXT_PPB>  (66) 
0.685376944981647

>  <ADMET_EXT_PPB#Prediction>  (66) 
true

>  <ADMET_EXT_PPB_Applicability>  (66) 
All properties and OPS components are within expected ranges.

>  <ADMET_EXT_PPB_Applicability#MD>  (66) 
12.3458947506578

>  <ADMET_EXT_PPB_Applicability#MDpvalue>  (66) 
0.0407863208278254

>  <ADMET_AlogP98>  (66) 
1.771

>  <ADMET_PSA_2D>  (66) 
103.226

$$$$
Molecule
     RDKit          3D

 29 30  0  0  0  0  0  0  0  0999 V2000
   -2.6453   -1.7164    0.2418 S   0  0  0  0  0  0  0  0  0  0  0  0
   -2.6768    0.0639    0.0378 N   0  0  0  0  0  0  0  0  0  0  0  0
   -0.0372   -0.1030   -0.2472 C   0  0  0  0  0  0  0  0  0  0  0  0
   -1.3008    0.7476   -0.1827 C   0  0  2  0  0  0  0  0  0  0  0  0
    1.1379    0.5207   -0.0597 N   0  0  0  0  0  0  0  0  0  0  0  0
    6.3680   -1.9601    0.0084 C   0  0  0  0  0  0  0  0  0  0  0  0
   -1.5347   -2.0693    1.2136 O   0  0  0  0  0  0  0  0  0  0  0  0
   -2.3318   -2.3441   -1.1037 O   0  0  0  0  0  0  0  0  0  0  0  0
   -3.9862    0.8444   -0.0160 C   0  0  0  0  0  0  0  0  0  0  0  0
    5.0144   -1.2389   -0.0122 C   0  0  0  0  0  0  0  0  0  0  0  0
   -0.0931   -1.3129   -0.4776 O   0  0  0  0  0  0  0  0  0  0  0  0
    6.3157   -3.1941    0.0070 O   0  0  0  0  0  0  0  0  0  0  0  0
    2.4206   -0.0994   -0.0544 C   0  0  0  0  0  0  0  0  0  0  0  0
   -5.2887    0.1589   -0.0384 C   0  0  0  0  0  0  0  0  0  0  0  0
   -4.0214    2.1808   -0.0579 C   0  0  0  0  0  0  0  0  0  0  0  0
    3.9263   -2.0110   -0.0558 C   0  0  0  0  0  0  0  0  0  0  0  0
    4.8180    0.2284    0.0152 C   0  0  0  0  0  0  0  0  0  0  0  0
   -4.1227   -2.5407    0.9256 C   0  0  0  0  0  0  0  0  0  0  0  0
    7.7135   -1.3847    0.0259 O   0  0  0  0  0  0  0  0  0  0  0  0
   -6.4443    2.2756   -0.0969 C   0  0  0  0  0  0  0  0  0  0  0  0
    3.5984    0.7578   -0.0028 C   0  0  0  0  0  0  0  0  0  0  0  0
    2.5818   -1.4222   -0.0777 C   0  0  0  0  0  0  0  0  0  0  0  0
   -5.2838    2.9260   -0.0929 C   0  0  0  0  0  0  0  0  0  0  0  0
   -6.4398    0.8265   -0.0761 C   0  0  0  0  0  0  0  0  0  0  0  0
   -0.9741    2.1702    0.3662 C   0  0  0  0  0  0  0  0  0  0  0  0
   -7.6704    2.9654   -0.1165 O   0  0  0  0  0  0  0  0  0  0  0  0
    7.8913    0.0401    0.0191 C   0  0  0  0  0  0  0  0  0  0  0  0
   -7.4753    4.3881   -0.1177 C   0  0  0  0  0  0  0  0  0  0  0  0
    9.3923    0.3757    0.0252 C   0  0  0  0  0  0  0  0  0  0  0  0
  2  1  1  0
  3  4  1  0
  4  2  1  0
  5  3  1  0
  6 10  1  0
  7  1  2  0
  8  1  2  0
  9  2  1  0
 10 16  2  0
 11  3  2  0
 12  6  2  0
 13  5  1  0
 14  9  2  0
 15  9  1  0
 16 22  1  0
 17 21  2  0
 18  1  1  0
 19  6  1  0
 20 24  2  0
 21 13  1  0
 22 13  2  0
 23 15  2  0
 24 14  1  0
  4 25  1  1
 26 20  1  0
 27 19  1  0
 28 26  1  0
 29 27  1  0
 20 23  1  0
 10 17  1  0
M  END
>  <Name>  (67) 
Molecule

>  <IDNUMBER>  (67) 
BAS 02208917

>  <Num_H_Acceptors_Lipinski>  (67) 
8

>  <Num_H_Donors_Lipinski>  (67) 
1

>  <Molecular_Weight>  (67) 
420.47936

>  <ALogP>  (67) 
2.255

>  <Num_RotatableBonds>  (67) 
9

>  <Molecular_PolarSurfaceArea>  (67) 
110.39

>  <Num_H_Acceptors>  (67) 
6

>  <Num_H_Donors>  (67) 
1

>  <ADMET_Solubility>  (67) 
-3.225

>  <ADMET_Solubility_Level>  (67) 
3

>  <ADMET_Unknown_AlogP98>  (67) 
0

>  <ADMET_BBB>  (67) 
-1.09

>  <ADMET_BBB_Level>  (67) 
3

>  <ADMET_EXT_CYP2D6>  (67) 
-14.6089896540545

>  <ADMET_EXT_CYP2D6#Prediction>  (67) 
false

>  <ADMET_EXT_CYP2D6_Applicability>  (67) 
All properties and OPS components are within expected ranges.
Unknown FCFP_2 feature: 1018882710: [*]CS(=O)(=O)O[*]

>  <ADMET_EXT_CYP2D6_Applicability#MD>  (67) 
14.3374063480549

>  <ADMET_EXT_CYP2D6_Applicability#MDpvalue>  (67) 
1.12423521240276e-05

>  <ADMET_EXT_Hepatotoxic>  (67) 
-5.73017675855866

>  <ADMET_EXT_Hepatotoxic#Prediction>  (67) 
false

>  <ADMET_EXT_Hepatotoxic_Applicability>  (67) 
All properties and OPS components are within expected ranges.
Unknown FCFP_2 feature: 1018882710: [*]CS(=O)(=O)O[*]

>  <ADMET_EXT_Hepatotoxic_Applicability#MD>  (67) 
10.5561861345426

>  <ADMET_EXT_Hepatotoxic_Applicability#MDpvalue>  (67) 
0.0230638164553012

>  <ADMET_Absorption_Level>  (67) 
0

>  <ADMET_EXT_PPB>  (67) 
-3.11472726489846

>  <ADMET_EXT_PPB#Prediction>  (67) 
false

>  <ADMET_EXT_PPB_Applicability>  (67) 
All properties and OPS components are within expected ranges.

>  <ADMET_EXT_PPB_Applicability#MD>  (67) 
15.394218898926

>  <ADMET_EXT_PPB_Applicability#MDpvalue>  (67) 
6.98647875622596e-08

>  <ADMET_AlogP98>  (67) 
2.255

>  <ADMET_PSA_2D>  (67) 
103.226

$$$$
Molecule
     RDKit          3D

 21 23  0  0  0  0  0  0  0  0999 V2000
   -0.8435   -0.0316    0.0212 C   0  0  0  0  0  0  0  0  0  0  0  0
    0.4330   -0.1285    0.0011 N   0  0  0  0  0  0  0  0  0  0  0  0
    0.7392   -1.4521   -0.0073 N   0  0  0  0  0  0  0  0  0  0  0  0
   -1.5827    1.3019    0.0376 C   0  0  0  0  0  0  0  0  0  0  0  0
    1.9544   -2.0145   -0.0144 C   0  0  0  0  0  0  0  0  0  0  0  0
   -1.4251   -1.3766    0.0201 C   0  0  0  0  0  0  0  0  0  0  0  0
   -0.4108   -2.2221    0.0000 C   0  0  0  0  0  0  0  0  0  0  0  0
   -3.0335    1.4842    0.0951 N   0  0  0  0  0  0  0  0  0  0  0  0
   -0.8929    2.3266   -0.0118 O   0  0  0  0  0  0  0  0  0  0  0  0
    2.0136   -3.2498   -0.0180 O   0  0  0  0  0  0  0  0  0  0  0  0
    3.2274   -1.2678   -0.0133 C   0  0  0  0  0  0  0  0  0  0  0  0
   -5.8085    1.9759    0.2396 O   0  0  0  0  0  0  0  0  0  0  0  0
   -3.5281    2.8519    0.1297 C   0  0  0  0  0  0  0  0  0  0  0  0
   -3.9840    0.3768    0.2200 C   0  0  0  0  0  0  0  0  0  0  0  0
   -5.3925    0.7265   -0.2903 C   0  0  0  0  0  0  0  0  0  0  0  0
   -4.9888    2.9699   -0.3666 C   0  0  0  0  0  0  0  0  0  0  0  0
    3.2817    0.1988   -0.0092 C   0  0  0  0  0  0  0  0  0  0  0  0
    4.3612   -1.9673   -0.0131 C   0  0  0  0  0  0  0  0  0  0  0  0
    4.4615    0.8197   -0.0055 C   0  0  0  0  0  0  0  0  0  0  0  0
    5.6548   -1.2886   -0.0094 C   0  0  0  0  0  0  0  0  0  0  0  0
    5.7045    0.0413   -0.0055 C   0  0  0  0  0  0  0  0  0  0  0  0
  2  1  2  0
  3  2  1  0
  4  1  1  0
  5  3  1  0
  6  1  1  0
  7  6  2  0
  8  4  1  0
  9  4  2  0
 10  5  2  0
 11  5  1  0
 12 15  1  0
 13  8  1  0
 14  8  1  0
 15 14  1  0
 16 13  1  0
 17 11  2  0
 18 11  1  0
 19 17  1  0
 20 18  2  0
 21 20  1  0
  7  3  1  0
 12 16  1  0
 21 19  2  0
M  END
>  <Name>  (68) 
Molecule

>  <IDNUMBER>  (68) 
BAS 02559314

>  <Num_H_Acceptors_Lipinski>  (68) 
6

>  <Num_H_Donors_Lipinski>  (68) 
0

>  <Molecular_Weight>  (68) 
285.2979

>  <ALogP>  (68) 
1.458

>  <Num_RotatableBonds>  (68) 
2

>  <Molecular_PolarSurfaceArea>  (68) 
64.43

>  <Num_H_Acceptors>  (68) 
4

>  <Num_H_Donors>  (68) 
0

>  <ADMET_Solubility>  (68) 
-2.739

>  <ADMET_Solubility_Level>  (68) 
3

>  <ADMET_Unknown_AlogP98>  (68) 
0

>  <ADMET_BBB>  (68) 
-0.708

>  <ADMET_BBB_Level>  (68) 
3

>  <ADMET_EXT_CYP2D6>  (68) 
-6.99742938139025

>  <ADMET_EXT_CYP2D6#Prediction>  (68) 
false

>  <ADMET_EXT_CYP2D6_Applicability>  (68) 
All properties and OPS components are within expected ranges.
Unknown FCFP_2 feature: -1549639687: [*]:n(:[*])C(=O)[c](:[*]):[*]

>  <ADMET_EXT_CYP2D6_Applicability#MD>  (68) 
16.4124303186865

>  <ADMET_EXT_CYP2D6_Applicability#MDpvalue>  (68) 
4.9252227438539e-08

>  <ADMET_EXT_Hepatotoxic>  (68) 
-4.62456214392384

>  <ADMET_EXT_Hepatotoxic#Prediction>  (68) 
false

>  <ADMET_EXT_Hepatotoxic_Applicability>  (68) 
All properties and OPS components are within expected ranges.
Unknown FCFP_2 feature: -1549639687: [*]:n(:[*])C(=O)[c](:[*]):[*]

>  <ADMET_EXT_Hepatotoxic_Applicability#MD>  (68) 
14.7829844883911

>  <ADMET_EXT_Hepatotoxic_Applicability#MDpvalue>  (68) 
1.09438263277354e-10

>  <ADMET_Absorption_Level>  (68) 
0

>  <ADMET_EXT_PPB>  (68) 
-0.429666064926763

>  <ADMET_EXT_PPB#Prediction>  (68) 
true

>  <ADMET_EXT_PPB_Applicability>  (68) 
All properties and OPS components are within expected ranges.

>  <ADMET_EXT_PPB_Applicability#MD>  (68) 
13.6731440893369

>  <ADMET_EXT_PPB_Applicability#MDpvalue>  (68) 
0.000433651322077821

>  <ADMET_AlogP98>  (68) 
1.458

>  <ADMET_PSA_2D>  (68) 
63.493

$$$$
Molecule
     RDKit          3D

 23 25  0  0  0  0  0  0  0  0999 V2000
   -0.6894   -0.2748   -0.5770 N   0  0  0  0  0  0  0  0  0  0  0  0
   -1.8900   -0.8487   -0.4179 C   0  0  0  0  0  0  0  0  0  0  0  0
   -0.5467    1.0637   -0.4736 N   0  0  0  0  0  0  0  0  0  0  0  0
   -1.6386    1.8849   -0.1960 C   0  0  0  0  0  0  0  0  0  0  0  0
   -3.0658   -0.0299   -0.1419 C   0  0  0  0  0  0  0  0  0  0  0  0
   -2.9437    1.2889   -0.0367 C   0  0  0  0  0  0  0  0  0  0  0  0
    2.2356   -2.7364    0.2351 C   0  0  0  0  0  0  0  0  0  0  0  0
    0.8058   -2.0902    0.2663 C   0  0  0  0  0  0  0  0  0  0  0  0
    0.4839   -1.0617   -0.8742 C   0  0  0  0  0  0  0  0  0  0  0  0
   -2.0237   -2.0734   -0.5232 O   0  0  0  0  0  0  0  0  0  0  0  0
   -1.4949    3.1095   -0.0994 O   0  0  0  0  0  0  0  0  0  0  0  0
    3.5280   -2.0367    0.0666 O   0  0  0  0  0  0  0  0  0  0  0  0
    2.2944   -3.9581    0.4190 O   0  0  0  0  0  0  0  0  0  0  0  0
   -4.3748   -0.6579    0.0086 C   0  0  0  0  0  0  0  0  0  0  0  0
    3.5662   -0.5790   -0.0721 C   0  0  0  0  0  0  0  0  0  0  0  0
   -4.1167    2.1198    0.2291 C   0  0  0  0  0  0  0  0  0  0  0  0
    4.9841   -0.1147   -0.4547 C   0  0  0  0  0  0  0  0  0  0  0  0
    3.1374    0.1619    1.2318 C   0  0  0  0  0  0  0  0  0  0  0  0
   -5.4478    0.0936    0.2473 C   0  0  0  0  0  0  0  0  0  0  0  0
   -5.3130    1.5498    0.3627 C   0  0  0  0  0  0  0  0  0  0  0  0
    4.9632    1.4101   -0.7142 C   0  0  0  0  0  0  0  0  0  0  0  0
    3.0924    1.6775    0.9560 C   0  0  0  0  0  0  0  0  0  0  0  0
    4.4950    2.1608    0.5501 C   0  0  0  0  0  0  0  0  0  0  0  0
  2  1  1  0
  3  1  1  0
  4  3  1  0
  5  2  1  0
  6  4  1  0
  7  8  1  0
  8  9  1  0
  9  1  1  0
 10  2  2  0
 11  4  2  0
 12  7  1  0
 13  7  2  0
 14  5  2  0
 15 12  1  0
 16  6  2  0
 17 15  1  0
 18 15  1  0
 19 14  1  0
 20 16  1  0
 21 17  1  0
 22 18  1  0
 23 22  1  0
  6  5  1  0
 20 19  2  0
 23 21  1  0
M  END
>  <Name>  (69) 
Molecule

>  <IDNUMBER>  (69) 
BAS 02592838

>  <Num_H_Acceptors_Lipinski>  (69) 
6

>  <Num_H_Donors_Lipinski>  (69) 
1

>  <Molecular_Weight>  (69) 
316.3517

>  <ALogP>  (69) 
2.061

>  <Num_RotatableBonds>  (69) 
5

>  <Molecular_PolarSurfaceArea>  (69) 
75.71

>  <Num_H_Acceptors>  (69) 
4

>  <Num_H_Donors>  (69) 
1

>  <ADMET_Solubility>  (69) 
-3.354

>  <ADMET_Solubility_Level>  (69) 
3

>  <ADMET_Unknown_AlogP98>  (69) 
0

>  <ADMET_BBB>  (69) 
-0.735

>  <ADMET_BBB_Level>  (69) 
3

>  <ADMET_EXT_CYP2D6>  (69) 
-5.38933678383666

>  <ADMET_EXT_CYP2D6#Prediction>  (69) 
false

>  <ADMET_EXT_CYP2D6_Applicability>  (69) 
All properties and OPS components are within expected ranges.
Unknown FCFP_2 feature: -1553784664: [*]NN(C(=[*])[*])C(=[*])[*]

>  <ADMET_EXT_CYP2D6_Applicability#MD>  (69) 
15.3443193751157

>  <ADMET_EXT_CYP2D6_Applicability#MDpvalue>  (69) 
8.30327103213592e-07

>  <ADMET_EXT_Hepatotoxic>  (69) 
-12.1954449401392

>  <ADMET_EXT_Hepatotoxic#Prediction>  (69) 
false

>  <ADMET_EXT_Hepatotoxic_Applicability>  (69) 
All properties and OPS components are within expected ranges.
Unknown FCFP_2 feature: -1553784664: [*]NN(C(=[*])[*])C(=[*])[*]

>  <ADMET_EXT_Hepatotoxic_Applicability#MD>  (69) 
10.9127769480637

>  <ADMET_EXT_Hepatotoxic_Applicability#MDpvalue>  (69) 
0.00814904286551981

>  <ADMET_Absorption_Level>  (69) 
0

>  <ADMET_EXT_PPB>  (69) 
0.39843867934084

>  <ADMET_EXT_PPB#Prediction>  (69) 
true

>  <ADMET_EXT_PPB_Applicability>  (69) 
All properties and OPS components are within expected ranges.

>  <ADMET_EXT_PPB_Applicability#MD>  (69) 
13.0275326936898

>  <ADMET_EXT_PPB_Applicability#MDpvalue>  (69) 
0.00510355798331181

>  <ADMET_AlogP98>  (69) 
2.061

>  <ADMET_PSA_2D>  (69) 
76.995

$$$$
Molecule
     RDKit          3D

 28 30  0  0  0  0  0  0  0  0999 V2000
   -2.1310   -2.9977   -0.1410 S   0  0  0  0  0  0  0  0  0  0  0  0
   -2.3046   -1.2299    0.0524 N   0  0  0  0  0  0  0  0  0  0  0  0
   -1.0795   -0.3754    0.2037 C   0  0  0  0  0  0  0  0  0  0  0  0
    0.2794   -1.0671   -0.0529 C   0  0  0  0  0  0  0  0  0  0  0  0
    1.4926   -0.3618    0.0192 N   0  0  0  0  0  0  0  0  0  0  0  0
    4.0074    0.9619    0.0763 N   0  0  0  0  0  0  0  0  0  0  0  0
   -1.4728   -3.2651   -1.4824 O   0  0  0  0  0  0  0  0  0  0  0  0
   -1.2195   -3.5027    0.9621 O   0  0  0  0  0  0  0  0  0  0  0  0
   -3.5865   -0.5170    0.0629 C   0  0  0  0  0  0  0  0  0  0  0  0
    1.5407    1.0361    0.3684 C   0  0  0  0  0  0  0  0  0  0  0  0
    2.7059   -1.0815   -0.2735 C   0  0  0  0  0  0  0  0  0  0  0  0
    2.8084    1.7070   -0.2501 C   0  0  0  0  0  0  0  0  0  0  0  0
    3.9233   -0.4303    0.4165 C   0  0  0  0  0  0  0  0  0  0  0  0
    0.3478   -2.2545   -0.3586 O   0  0  0  0  0  0  0  0  0  0  0  0
    5.2649    1.5928    0.0450 C   0  0  0  0  0  0  0  0  0  0  0  0
   -4.8787   -1.1990   -0.0875 C   0  0  0  0  0  0  0  0  0  0  0  0
   -3.5910    0.8060    0.2110 C   0  0  0  0  0  0  0  0  0  0  0  0
   -3.6268   -4.0369   -0.0724 C   0  0  0  0  0  0  0  0  0  0  0  0
   -6.0233    0.9204    0.0924 C   0  0  0  0  0  0  0  0  0  0  0  0
   -6.0258   -0.5254   -0.0722 C   0  0  0  0  0  0  0  0  0  0  0  0
   -4.8612    1.5611    0.2268 C   0  0  0  0  0  0  0  0  0  0  0  0
   -7.2301    1.6408    0.1106 O   0  0  0  0  0  0  0  0  0  0  0  0
    6.3701    0.8909    0.3033 C   0  0  0  0  0  0  0  0  0  0  0  0
    5.3680    3.0208   -0.2718 C   0  0  0  0  0  0  0  0  0  0  0  0
   -8.3576    0.7606   -0.0452 C   0  0  0  0  0  0  0  0  0  0  0  0
    7.6818    1.5432    0.2706 C   0  0  0  0  0  0  0  0  0  0  0  0
    6.5608    3.6142   -0.2994 C   0  0  0  0  0  0  0  0  0  0  0  0
    7.7728    2.8405   -0.0158 C   0  0  0  0  0  0  0  0  0  0  0  0
  2  1  1  0
  3  2  1  0
  4  3  1  0
  5  4  1  0
  6 12  1  0
  7  1  2  0
  8  1  2  0
  9  2  1  0
 10  5  1  0
 11  5  1  0
 12 10  1  0
 13 11  1  0
 14  4  2  0
 15  6  1  0
 16  9  2  0
 17  9  1  0
 18  1  1  0
 19 20  2  0
 20 16  1  0
 21 17  2  0
 22 19  1  0
 23 15  2  0
 24 15  1  0
 25 22  1  0
 26 23  1  0
 27 24  2  0
 28 27  1  0
 19 21  1  0
  6 13  1  0
 28 26  2  0
M  END
>  <Name>  (70) 
Molecule

>  <IDNUMBER>  (70) 
BAS 02825761

>  <Num_H_Acceptors_Lipinski>  (70) 
7

>  <Num_H_Donors_Lipinski>  (70) 
0

>  <Molecular_Weight>  (70) 
403.4952

>  <ALogP>  (70) 
1.825

>  <Num_RotatableBonds>  (70) 
6

>  <Molecular_PolarSurfaceArea>  (70) 
78.54

>  <Num_H_Acceptors>  (70) 
5

>  <Num_H_Donors>  (70) 
0

>  <ADMET_Solubility>  (70) 
-2.969

>  <ADMET_Solubility_Level>  (70) 
3

>  <ADMET_Unknown_AlogP98>  (70) 
0

>  <ADMET_BBB>  (70) 
-0.712

>  <ADMET_BBB_Level>  (70) 
3

>  <ADMET_EXT_CYP2D6>  (70) 
-17.5911877309522

>  <ADMET_EXT_CYP2D6#Prediction>  (70) 
false

>  <ADMET_EXT_CYP2D6_Applicability>  (70) 
OPS PC9 out of range. Value: 4.8049. Training min, max, SD, explained variance: -4.6974, 3.8454, 1.569, 0.0322.
Unknown FCFP_2 feature: 1018882710: [*]CS(=O)(=O)O[*]

>  <ADMET_EXT_CYP2D6_Applicability#MD>  (70) 
12.3176453813347

>  <ADMET_EXT_CYP2D6_Applicability#MDpvalue>  (70) 
0.00146723937262082

>  <ADMET_EXT_Hepatotoxic>  (70) 
-4.19014848287333

>  <ADMET_EXT_Hepatotoxic#Prediction>  (70) 
false

>  <ADMET_EXT_Hepatotoxic_Applicability>  (70) 
OPS PC11 out of range. Value: 4.071. Training min, max, SD, explained variance: -4.0074, 4.0205, 1.463, 0.0267.
Unknown FCFP_2 feature: 1018882710: [*]CS(=O)(=O)O[*]

>  <ADMET_EXT_Hepatotoxic_Applicability#MD>  (70) 
11.9884297682397

>  <ADMET_EXT_Hepatotoxic_Applicability#MDpvalue>  (70) 
0.000169537935381885

>  <ADMET_Absorption_Level>  (70) 
0

>  <ADMET_EXT_PPB>  (70) 
7.65193506876382

>  <ADMET_EXT_PPB#Prediction>  (70) 
true

>  <ADMET_EXT_PPB_Applicability>  (70) 
OPS PC31 out of range. Value: 3.6047. Training min, max, SD, explained variance: -5.2251, 3.1286, 1.044, 0.0090.

>  <ADMET_EXT_PPB_Applicability#MD>  (70) 
12.539102791221

>  <ADMET_EXT_PPB_Applicability#MDpvalue>  (70) 
0.0239334378157163

>  <ADMET_AlogP98>  (70) 
1.825

>  <ADMET_PSA_2D>  (70) 
70.889

$$$$
Molecule
     RDKit          3D

 20 22  0  0  0  0  0  0  0  0999 V2000
    0.3136   -1.1716   -0.1308 O   0  0  0  0  0  0  0  0  0  0  0  0
    0.4529   -3.8608    0.2319 O   0  0  0  0  0  0  0  0  0  0  0  0
   -0.8233   -1.9118   -0.0628 C   0  0  0  0  0  0  0  0  0  0  0  0
    0.6137    3.5189   -0.1444 N   0  0  0  0  0  0  0  0  0  0  0  0
    1.7745    1.3523   -0.1883 C   0  0  0  0  0  0  0  0  0  0  0  0
   -0.7612   -3.2290    0.1307 C   0  0  0  0  0  0  0  0  0  0  0  0
    1.5201   -1.7167    0.3031 C   0  0  1  0  0  0  0  0  0  0  0  0
    2.6849    0.4783    0.2515 N   0  0  0  0  0  0  0  0  0  0  0  0
    1.7956    2.7701    0.3268 C   0  0  0  0  0  0  0  0  0  0  0  0
    0.9372    1.0121   -1.0331 O   0  0  0  0  0  0  0  0  0  0  0  0
    1.6204   -3.1788   -0.1410 C   0  0  0  0  0  0  0  0  0  0  0  0
    2.7287   -0.8949   -0.2170 C   0  0  0  0  0  0  0  0  0  0  0  0
    0.6457    4.9110    0.2832 C   0  0  0  0  0  0  0  0  0  0  0  0
   -0.6229    3.0627    0.4992 C   0  0  0  0  0  0  0  0  0  0  0  0
   -2.1204   -1.2479   -0.2009 C   0  0  0  0  0  0  0  0  0  0  0  0
   -1.9966   -4.0114    0.2260 C   0  0  0  0  0  0  0  0  0  0  0  0
   -0.7533    5.3950   -0.1500 C   0  0  0  0  0  0  0  0  0  0  0  0
   -1.6353    4.1280    0.0302 C   0  0  0  0  0  0  0  0  0  0  0  0
   -3.2428   -1.9602   -0.1187 C   0  0  0  0  0  0  0  0  0  0  0  0
   -3.1778   -3.4062    0.1044 C   0  0  0  0  0  0  0  0  0  0  0  0
  2 11  1  0
  3  1  1  0
  4  9  1  0
  5  8  1  0
  6  3  2  0
  7  1  1  0
  8 12  1  0
  9  5  1  0
 10  5  2  0
 11  7  1  0
  7 12  1  6
 13  4  1  0
 14  4  1  0
 15  3  1  0
 16  6  1  0
 17 13  1  0
 18 14  1  0
 19 15  2  0
 20 19  1  0
  2  6  1  0
 20 16  2  0
 18 17  1  0
M  END
>  <Name>  (71) 
Molecule

>  <IDNUMBER>  (71) 
BAS 02868621

>  <Num_H_Acceptors_Lipinski>  (71) 
5

>  <Num_H_Donors_Lipinski>  (71) 
1

>  <Molecular_Weight>  (71) 
276.3309

>  <ALogP>  (71) 
1.304

>  <Num_RotatableBonds>  (71) 
4

>  <Molecular_PolarSurfaceArea>  (71) 
50.8

>  <Num_H_Acceptors>  (71) 
4

>  <Num_H_Donors>  (71) 
1

>  <ADMET_Solubility>  (71) 
-2.517

>  <ADMET_Solubility_Level>  (71) 
3

>  <ADMET_Unknown_AlogP98>  (71) 
0

>  <ADMET_BBB>  (71) 
-0.563

>  <ADMET_BBB_Level>  (71) 
3

>  <ADMET_EXT_CYP2D6>  (71) 
-2.44802660331189

>  <ADMET_EXT_CYP2D6#Prediction>  (71) 
false

>  <ADMET_EXT_CYP2D6_Applicability>  (71) 
All properties and OPS components are within expected ranges.

>  <ADMET_EXT_CYP2D6_Applicability#MD>  (71) 
12.6121249086025

>  <ADMET_EXT_CYP2D6_Applicability#MDpvalue>  (71) 
0.000752888051294949

>  <ADMET_EXT_Hepatotoxic>  (71) 
-10.1756691564835

>  <ADMET_EXT_Hepatotoxic#Prediction>  (71) 
false

>  <ADMET_EXT_Hepatotoxic_Applicability>  (71) 
All properties and OPS components are within expected ranges.

>  <ADMET_EXT_Hepatotoxic_Applicability#MD>  (71) 
11.2833266701132

>  <ADMET_EXT_Hepatotoxic_Applicability#MDpvalue>  (71) 
0.00242169635365532

>  <ADMET_Absorption_Level>  (71) 
0

>  <ADMET_EXT_PPB>  (71) 
-1.50661430307384

>  <ADMET_EXT_PPB#Prediction>  (71) 
true

>  <ADMET_EXT_PPB_Applicability>  (71) 
All properties and OPS components are within expected ranges.

>  <ADMET_EXT_PPB_Applicability#MD>  (71) 
12.3072731085853

>  <ADMET_EXT_PPB_Applicability#MDpvalue>  (71) 
0.0451293709499251

>  <ADMET_AlogP98>  (71) 
1.304

>  <ADMET_PSA_2D>  (71) 
51.323

$$$$
Molecule
     RDKit          3D

 24 25  0  0  0  0  0  0  0  0999 V2000
   -1.5964   -2.4710    0.0850 S   0  0  0  0  0  0  0  0  0  0  0  0
   -1.5573   -0.6787    0.2432 N   0  0  0  0  0  0  0  0  0  0  0  0
   -2.8112    0.2370    0.0785 C   0  0  0  0  0  0  0  0  0  0  0  0
   -0.3103   -0.1811    0.8350 C   0  0  0  0  0  0  0  0  0  0  0  0
    0.9656   -0.7828    0.2315 C   0  0  0  0  0  0  0  0  0  0  0  0
   -0.6138   -3.0282    1.0986 O   0  0  0  0  0  0  0  0  0  0  0  0
   -1.1061   -2.8424   -1.3018 O   0  0  0  0  0  0  0  0  0  0  0  0
   -2.9162    1.6043   -0.1706 C   0  0  0  0  0  0  0  0  0  0  0  0
    2.1564   -0.2491    0.5014 N   0  0  0  0  0  0  0  0  0  0  0  0
    0.9183   -1.7628   -0.5157 O   0  0  0  0  0  0  0  0  0  0  0  0
    5.7867   -0.7296   -0.1923 O   0  0  0  0  0  0  0  0  0  0  0  0
   -3.1508   -3.3862    0.3756 C   0  0  0  0  0  0  0  0  0  0  0  0
    3.3303   -0.8654   -0.0652 C   0  0  0  0  0  0  0  0  0  0  0  0
    4.6133   -0.1023    0.3233 C   0  0  2  0  0  0  0  0  0  0  0  0
   -1.9288    2.6761   -0.4290 O   0  0  0  0  0  0  0  0  0  0  0  0
   -4.1020   -0.4674    0.2304 C   0  0  0  0  0  0  0  0  0  0  0  0
    6.8471    0.2536    0.0064 C   0  0  0  0  0  0  0  0  0  0  0  0
   -4.2762    2.2028   -0.2096 C   0  0  0  0  0  0  0  0  0  0  0  0
   -0.5560    2.4711   -0.6844 C   0  0  0  0  0  0  0  0  0  0  0  0
    4.7004    1.2777   -0.2921 C   0  0  0  0  0  0  0  0  0  0  0  0
   -5.2935    0.1105    0.1722 C   0  0  0  0  0  0  0  0  0  0  0  0
    0.2240    3.7753   -0.4664 C   0  0  0  0  0  0  0  0  0  0  0  0
    6.1048    1.6144    0.1910 C   0  0  0  0  0  0  0  0  0  0  0  0
   -5.3868    1.5032   -0.0496 C   0  0  0  0  0  0  0  0  0  0  0  0
  2  1  1  0
  3  2  1  0
  4  2  1  0
  5  4  1  0
  6  1  2  0
  7  1  2  0
  8  3  2  0
  9  5  1  0
 10  5  2  0
 11 14  1  0
 12  1  1  0
 13  9  1  0
 14 13  1  6
 15  8  1  0
 16  3  1  0
 17 11  1  0
 18  8  1  0
 19 15  1  0
 20 14  1  0
 21 16  2  0
 22 19  1  0
 23 20  1  0
 24 21  1  0
 24 18  2  0
 17 23  1  0
M  END
>  <Name>  (72) 
Molecule

>  <IDNUMBER>  (72) 
BAS 02901225

>  <Num_H_Acceptors_Lipinski>  (72) 
7

>  <Num_H_Donors_Lipinski>  (72) 
1

>  <Molecular_Weight>  (72) 
356.43716

>  <ALogP>  (72) 
0.698

>  <Num_RotatableBonds>  (72) 
8

>  <Molecular_PolarSurfaceArea>  (72) 
93.32

>  <Num_H_Acceptors>  (72) 
5

>  <Num_H_Donors>  (72) 
1

>  <ADMET_Solubility>  (72) 
-1.825

>  <ADMET_Solubility_Level>  (72) 
4

>  <ADMET_Unknown_AlogP98>  (72) 
0

>  <ADMET_BBB>  (72) 
-1.298

>  <ADMET_BBB_Level>  (72) 
3

>  <ADMET_EXT_CYP2D6>  (72) 
-11.2316937423411

>  <ADMET_EXT_CYP2D6#Prediction>  (72) 
false

>  <ADMET_EXT_CYP2D6_Applicability>  (72) 
All properties and OPS components are within expected ranges.
Unknown FCFP_2 feature: 1018882710: [*]CS(=O)(=O)O[*]

>  <ADMET_EXT_CYP2D6_Applicability#MD>  (72) 
12.0523498814076

>  <ADMET_EXT_CYP2D6_Applicability#MDpvalue>  (72) 
0.00263214109391639

>  <ADMET_EXT_Hepatotoxic>  (72) 
-7.47931627665371

>  <ADMET_EXT_Hepatotoxic#Prediction>  (72) 
false

>  <ADMET_EXT_Hepatotoxic_Applicability>  (72) 
All properties and OPS components are within expected ranges.
Unknown FCFP_2 feature: 1018882710: [*]CS(=O)(=O)O[*]

>  <ADMET_EXT_Hepatotoxic_Applicability#MD>  (72) 
11.8817064560951

>  <ADMET_EXT_Hepatotoxic_Applicability#MDpvalue>  (72) 
0.000260789735593697

>  <ADMET_Absorption_Level>  (72) 
0

>  <ADMET_EXT_PPB>  (72) 
-0.526338670230831

>  <ADMET_EXT_PPB#Prediction>  (72) 
true

>  <ADMET_EXT_PPB_Applicability>  (72) 
All properties and OPS components are within expected ranges.

>  <ADMET_EXT_PPB_Applicability#MD>  (72) 
12.0646238862865

>  <ADMET_EXT_PPB_Applicability#MDpvalue>  (72) 
0.0817910622998739

>  <ADMET_AlogP98>  (72) 
0.698

>  <ADMET_PSA_2D>  (72) 
85.925

$$$$
Molecule
     RDKit          3D

 26 27  0  0  0  0  0  0  0  0999 V2000
    1.1345   -1.4851   -0.1487 C   0  0  0  0  0  0  0  0  0  0  0  0
   -1.6132   -1.4733    0.1025 C   0  0  0  0  0  0  0  0  0  0  0  0
   -0.2331   -0.5767   -0.1005 C   0  0  0  0  0  0  0  0  0  0  0  0
    0.9947   -2.8155   -0.0128 C   0  0  0  0  0  0  0  0  0  0  0  0
   -1.4406   -2.8139    0.1998 C   0  0  0  0  0  0  0  0  0  0  0  0
   -0.2148   -3.4154    0.1508 N   0  0  0  0  0  0  0  0  0  0  0  0
   -0.1733    1.0750   -0.0386 C   0  0  0  0  0  0  0  0  0  0  0  0
   -3.1071   -0.8980    0.2068 C   0  0  0  0  0  0  0  0  0  0  0  0
    2.5779   -0.8953   -0.3754 C   0  0  0  0  0  0  0  0  0  0  0  0
    0.9774    1.7375    0.0780 C   0  0  0  0  0  0  0  0  0  0  0  0
    2.7318    0.1900   -0.9233 O   0  0  0  0  0  0  0  0  0  0  0  0
   -4.0659   -1.6396    0.4560 O   0  0  0  0  0  0  0  0  0  0  0  0
   -3.4285    0.4327    0.0852 O   0  0  0  0  0  0  0  0  0  0  0  0
    3.7595   -1.5943   -0.0057 O   0  0  0  0  0  0  0  0  0  0  0  0
    1.0623    3.2012    0.1053 C   0  0  0  0  0  0  0  0  0  0  0  0
   -2.5669   -3.8091    0.3780 C   0  0  0  0  0  0  0  0  0  0  0  0
    2.1469   -3.7882   -0.0618 C   0  0  0  0  0  0  0  0  0  0  0  0
   -1.3564    1.9126   -0.1102 C   0  0  0  0  0  0  0  0  0  0  0  0
    2.3237    3.8200    0.1844 O   0  0  0  0  0  0  0  0  0  0  0  0
   -1.3142    3.2424   -0.0705 C   0  0  0  0  0  0  0  0  0  0  0  0
   -0.0485    3.9238    0.0330 C   0  0  0  0  0  0  0  0  0  0  0  0
    4.9619   -0.8430   -0.2892 C   0  0  0  0  0  0  0  0  0  0  0  0
   -4.8456    0.7002    0.2596 C   0  0  0  0  0  0  0  0  0  0  0  0
    2.2096    5.2534    0.1658 C   0  0  0  0  0  0  0  0  0  0  0  0
   -5.6695    0.2874   -0.9868 C   0  0  0  0  0  0  0  0  0  0  0  0
    5.1410    0.3264    0.7167 C   0  0  0  0  0  0  0  0  0  0  0  0
  2  3  1  0
  3  1  1  0
  4  1  2  0
  5  6  1  0
  6  4  1  0
  7  3  1  0
  8  2  1  0
  9  1  1  0
 10  7  2  0
 11  9  2  0
 12  8  2  0
 13  8  1  0
 14  9  1  0
 15 10  1  0
 16  5  1  0
 17  4  1  0
 18  7  1  0
 19 15  1  0
 20 18  2  0
 21 20  1  0
 22 14  1  0
 23 13  1  0
 24 19  1  0
 25 23  1  0
 26 22  1  0
  5  2  2  0
 21 15  2  0
M  END
>  <Name>  (73) 
Molecule

>  <IDNUMBER>  (73) 
BAS 03305655

>  <Num_H_Acceptors_Lipinski>  (73) 
6

>  <Num_H_Donors_Lipinski>  (73) 
1

>  <Molecular_Weight>  (73) 
359.4162

>  <ALogP>  (73) 
2.553

>  <Num_RotatableBonds>  (73) 
8

>  <Molecular_PolarSurfaceArea>  (73) 
73.86

>  <Num_H_Acceptors>  (73) 
6

>  <Num_H_Donors>  (73) 
1

>  <ADMET_Solubility>  (73) 
-3.713

>  <ADMET_Solubility_Level>  (73) 
3

>  <ADMET_Unknown_AlogP98>  (73) 
0

>  <ADMET_BBB>  (73) 
-0.539

>  <ADMET_BBB_Level>  (73) 
3

>  <ADMET_EXT_CYP2D6>  (73) 
-1.0088666958219

>  <ADMET_EXT_CYP2D6#Prediction>  (73) 
false

>  <ADMET_EXT_CYP2D6_Applicability>  (73) 
All properties and OPS components are within expected ranges.
Unknown FCFP_2 feature: 436975416: [*]NC(=C([*])[*])C

>  <ADMET_EXT_CYP2D6_Applicability#MD>  (73) 
12.9406281027395

>  <ADMET_EXT_CYP2D6_Applicability#MDpvalue>  (73) 
0.000350378049852239

>  <ADMET_EXT_Hepatotoxic>  (73) 
-13.1318005829062

>  <ADMET_EXT_Hepatotoxic#Prediction>  (73) 
false

>  <ADMET_EXT_Hepatotoxic_Applicability>  (73) 
All properties and OPS components are within expected ranges.

>  <ADMET_EXT_Hepatotoxic_Applicability#MD>  (73) 
10.5795968666717

>  <ADMET_EXT_Hepatotoxic_Applicability#MDpvalue>  (73) 
0.021626045873967

>  <ADMET_Absorption_Level>  (73) 
0

>  <ADMET_EXT_PPB>  (73) 
15.2792571961864

>  <ADMET_EXT_PPB#Prediction>  (73) 
true

>  <ADMET_EXT_PPB_Applicability>  (73) 
All properties and OPS components are within expected ranges.

>  <ADMET_EXT_PPB_Applicability#MD>  (73) 
9.69773038513867

>  <ADMET_EXT_PPB_Applicability#MDpvalue>  (73) 
0.957948745506768

>  <ADMET_AlogP98>  (73) 
2.553

>  <ADMET_PSA_2D>  (73) 
74.202

$$$$
Molecule
     RDKit          3D

 21 24  0  0  0  0  0  0  0  0999 V2000
    2.2342   -2.6036   -0.9991 C   0  0  1  0  0  0  0  0  0  0  0  0
    2.7749   -4.8628   -0.2768 N   0  0  0  0  0  0  0  0  0  0  0  0
    3.2807   -3.5219   -0.3849 C   0  0  0  0  0  0  0  0  0  0  0  0
    1.1215   -3.3483   -0.2958 C   0  0  2  0  0  0  0  0  0  0  0  0
    2.0565   -1.2083   -0.3349 C   0  0  1  0  0  0  0  0  0  0  0  0
    1.0887   -1.4793    0.8405 C   0  0  2  0  0  0  0  0  0  0  0  0
    1.4138   -2.8881    1.0784 O   0  0  0  0  0  0  0  0  0  0  0  0
    1.3542   -4.8462   -0.5387 C   0  0  0  0  0  0  0  0  0  0  0  0
    3.4571   -6.1472   -0.0043 C   0  0  0  0  0  0  0  0  0  0  0  0
   -0.2113   -2.8017   -0.5411 C   0  0  0  0  0  0  0  0  0  0  0  0
    3.3821   -0.5553   -0.0383 C   0  0  0  0  0  0  0  0  0  0  0  0
   -0.2538   -1.6796    0.1494 C   0  0  0  0  0  0  0  0  0  0  0  0
    4.4495   -3.1793   -0.2216 O   0  0  0  0  0  0  0  0  0  0  0  0
    3.4849    0.2085    0.9275 O   0  0  0  0  0  0  0  0  0  0  0  0
    4.9652   -6.4101    0.1940 C   0  0  0  0  0  0  0  0  0  0  0  0
    4.4707   -0.7462   -0.8872 O   0  0  0  0  0  0  0  0  0  0  0  0
    2.6467   -7.2067    0.0433 C   0  0  0  0  0  0  0  0  0  0  0  0
    6.0376   -5.3668    0.1623 C   0  0  0  0  0  0  0  0  0  0  0  0
    5.3818   -7.6603    0.4003 C   0  0  0  0  0  0  0  0  0  0  0  0
    3.1494   -8.5587    0.2798 C   0  0  0  0  0  0  0  0  0  0  0  0
    4.4485   -8.7726    0.4474 C   0  0  0  0  0  0  0  0  0  0  0  0
  2  3  1  0
  1  3  1  1
  4  1  1  0
  5  1  1  0
  6  5  1  0
  7  4  1  0
  4  8  1  1
  9  2  1  0
 10  4  1  0
  5 11  1  1
  6 12  1  6
 13  3  2  0
 14 11  2  0
 15  9  2  0
 16 11  1  0
 17  9  1  0
 18 15  1  0
 19 15  1  0
 20 17  2  0
 21 20  1  0
  8  2  1  0
  6  7  1  0
 12 10  2  0
 19 21  2  0
M  END
>  <Name>  (74) 
Molecule

>  <IDNUMBER>  (74) 
BAS 04880665

>  <Num_H_Acceptors_Lipinski>  (74) 
5

>  <Num_H_Donors_Lipinski>  (74) 
1

>  <Molecular_Weight>  (74) 
285.2946

>  <ALogP>  (74) 
1.016

>  <Num_RotatableBonds>  (74) 
2

>  <Molecular_PolarSurfaceArea>  (74) 
66.84

>  <Num_H_Acceptors>  (74) 
4

>  <Num_H_Donors>  (74) 
1

>  <ADMET_Solubility>  (74) 
-2.579

>  <ADMET_Solubility_Level>  (74) 
3

>  <ADMET_Unknown_AlogP98>  (74) 
0

>  <ADMET_BBB>  (74) 
-0.911

>  <ADMET_BBB_Level>  (74) 
3

>  <ADMET_EXT_CYP2D6>  (74) 
-9.96782223329897

>  <ADMET_EXT_CYP2D6#Prediction>  (74) 
false

>  <ADMET_EXT_CYP2D6_Applicability>  (74) 
All properties and OPS components are within expected ranges.

>  <ADMET_EXT_CYP2D6_Applicability#MD>  (74) 
15.2036329612862

>  <ADMET_EXT_CYP2D6_Applicability#MDpvalue>  (74) 
1.20003538931229e-06

>  <ADMET_EXT_Hepatotoxic>  (74) 
-6.82637616799166

>  <ADMET_EXT_Hepatotoxic#Prediction>  (74) 
false

>  <ADMET_EXT_Hepatotoxic_Applicability>  (74) 
All properties and OPS components are within expected ranges.

>  <ADMET_EXT_Hepatotoxic_Applicability#MD>  (74) 
11.9831399605053

>  <ADMET_EXT_Hepatotoxic_Applicability#MDpvalue>  (74) 
0.000173235148333965

>  <ADMET_Absorption_Level>  (74) 
0

>  <ADMET_EXT_PPB>  (74) 
-0.143508030044495

>  <ADMET_EXT_PPB#Prediction>  (74) 
true

>  <ADMET_EXT_PPB_Applicability>  (74) 
All properties and OPS components are within expected ranges.

>  <ADMET_EXT_PPB_Applicability#MD>  (74) 
15.4697510158481

>  <ADMET_EXT_PPB_Applicability#MDpvalue>  (74) 
4.45755148381113e-08

>  <ADMET_AlogP98>  (74) 
1.016

>  <ADMET_PSA_2D>  (74) 
67.699

$$$$
Molecule
     RDKit          3D

 27 28  0  0  0  0  0  0  0  0999 V2000
   -2.1178   -3.1494    0.1910 S   0  0  0  0  0  0  0  0  0  0  0  0
   -2.2585   -1.3621    0.0526 N   0  0  0  0  0  0  0  0  0  0  0  0
   -1.0052   -0.5694   -0.0182 C   0  0  0  0  0  0  0  0  0  0  0  0
   -3.5746   -0.6227   -0.0094 C   0  0  0  0  0  0  0  0  0  0  0  0
    0.3427   -1.3024   -0.0638 C   0  0  0  0  0  0  0  0  0  0  0  0
   -3.7218    0.9153   -0.0335 C   0  0  0  0  0  0  0  0  0  0  0  0
    1.5390   -0.5724   -0.1383 N   0  0  0  0  0  0  0  0  0  0  0  0
    5.2901    1.5617   -0.1102 C   0  0  0  0  0  0  0  0  0  0  0  0
   -1.2073   -3.4575    1.3651 O   0  0  0  0  0  0  0  0  0  0  0  0
   -1.4683   -3.6704   -1.0780 O   0  0  0  0  0  0  0  0  0  0  0  0
   -4.9346    1.4613   -0.0856 C   0  0  0  0  0  0  0  0  0  0  0  0
    4.0077    0.8394   -0.4051 C   0  0  0  0  0  0  0  0  0  0  0  0
    2.7825   -1.3300   -0.2290 C   0  0  0  0  0  0  0  0  0  0  0  0
    1.4932    0.8883   -0.2530 C   0  0  0  0  0  0  0  0  0  0  0  0
    0.4223   -2.5300   -0.0370 O   0  0  0  0  0  0  0  0  0  0  0  0
    6.3235    0.9159    0.0999 O   0  0  0  0  0  0  0  0  0  0  0  0
    2.8069    1.5949    0.1566 C   0  0  0  0  0  0  0  0  0  0  0  0
    4.0332   -0.5501    0.2049 C   0  0  0  0  0  0  0  0  0  0  0  0
   -2.3920    2.0420    0.0090 Cl  0  0  0  0  0  0  0  0  0  0  0  0
   -3.6210   -4.1519    0.4724 C   0  0  0  0  0  0  0  0  0  0  0  0
   -4.7154   -1.3169   -0.0484 C   0  0  0  0  0  0  0  0  0  0  0  0
   -5.0934    3.1813   -0.1076 Cl  0  0  0  0  0  0  0  0  0  0  0  0
    5.3256    2.9528   -0.1044 O   0  0  0  0  0  0  0  0  0  0  0  0
   -6.0242   -0.6826   -0.1060 C   0  0  0  0  0  0  0  0  0  0  0  0
   -6.1304    0.6377   -0.1227 C   0  0  0  0  0  0  0  0  0  0  0  0
    6.6598    3.3943    0.1698 C   0  0  0  0  0  0  0  0  0  0  0  0
    6.7128    4.9315    0.1307 C   0  0  0  0  0  0  0  0  0  0  0  0
  2  1  1  0
  3  2  1  0
  4  2  1  0
  5  3  1  0
  6  4  2  0
  7  5  1  0
  8 12  1  0
  9  1  2  0
 10  1  2  0
 11  6  1  0
 12 17  1  0
 13  7  1  0
 14  7  1  0
 15  5  2  0
 16  8  2  0
 17 14  1  0
 18 13  1  0
 19  6  1  0
 20  1  1  0
 21  4  1  0
 22 11  1  0
 23  8  1  0
 24 21  2  0
 25 24  1  0
 26 23  1  0
 27 26  1  0
 25 11  2  0
 12 18  1  0
M  END
>  <Name>  (75) 
Molecule

>  <IDNUMBER>  (75) 
BAS 04926608

>  <Num_H_Acceptors_Lipinski>  (75) 
7

>  <Num_H_Donors_Lipinski>  (75) 
0

>  <Molecular_Weight>  (75) 
437.33798

>  <ALogP>  (75) 
2.217

>  <Num_RotatableBonds>  (75) 
7

>  <Molecular_PolarSurfaceArea>  (75) 
92.36

>  <Num_H_Acceptors>  (75) 
5

>  <Num_H_Donors>  (75) 
0

>  <ADMET_Solubility>  (75) 
-3.177

>  <ADMET_Solubility_Level>  (75) 
3

>  <ADMET_Unknown_AlogP98>  (75) 
0

>  <ADMET_BBB>  (75) 
-0.811

>  <ADMET_BBB_Level>  (75) 
3

>  <ADMET_EXT_CYP2D6>  (75) 
-11.0534271341446

>  <ADMET_EXT_CYP2D6#Prediction>  (75) 
false

>  <ADMET_EXT_CYP2D6_Applicability>  (75) 
All properties and OPS components are within expected ranges.
Unknown FCFP_2 feature: 1018882710: [*]CS(=O)(=O)O[*]

>  <ADMET_EXT_CYP2D6_Applicability#MD>  (75) 
12.6836160356453

>  <ADMET_EXT_CYP2D6_Applicability#MDpvalue>  (75) 
0.000638560605963077

>  <ADMET_EXT_Hepatotoxic>  (75) 
-4.64091264771533

>  <ADMET_EXT_Hepatotoxic#Prediction>  (75) 
false

>  <ADMET_EXT_Hepatotoxic_Applicability>  (75) 
All properties and OPS components are within expected ranges.
Unknown FCFP_2 feature: 1018882710: [*]CS(=O)(=O)O[*]

>  <ADMET_EXT_Hepatotoxic_Applicability#MD>  (75) 
14.4203837000549

>  <ADMET_EXT_Hepatotoxic_Applicability#MDpvalue>  (75) 
9.19923555991383e-10

>  <ADMET_Absorption_Level>  (75) 
0

>  <ADMET_EXT_PPB>  (75) 
1.9961562577059

>  <ADMET_EXT_PPB#Prediction>  (75) 
true

>  <ADMET_EXT_PPB_Applicability>  (75) 
All properties and OPS components are within expected ranges.

>  <ADMET_EXT_PPB_Applicability#MD>  (75) 
13.5624005566937

>  <ADMET_EXT_PPB_Applicability#MDpvalue>  (75) 
0.000684338511161529

>  <ADMET_AlogP98>  (75) 
2.217

>  <ADMET_PSA_2D>  (75) 
84.838

$$$$
Molecule
     RDKit          3D

 27 30  0  0  0  0  0  0  0  0999 V2000
   -0.1746    0.1896   -0.1028 N   0  0  0  0  0  0  0  0  0  0  0  0
   -0.2493    1.5654   -0.0573 N   0  0  0  0  0  0  0  0  0  0  0  0
   -1.3190   -0.5290   -0.1165 C   0  0  0  0  0  0  0  0  0  0  0  0
   -1.3499    2.2265   -0.0154 C   0  0  0  0  0  0  0  0  0  0  0  0
   -2.5906    0.1317   -0.0552 C   0  0  0  0  0  0  0  0  0  0  0  0
   -2.6530    1.4545   -0.0036 C   0  0  0  0  0  0  0  0  0  0  0  0
    1.2106   -0.4221   -0.1846 C   0  0  0  0  0  0  0  0  0  0  0  0
    1.4206   -1.9361    0.1166 C   0  0  0  0  0  0  0  0  0  0  0  0
   -1.3332   -1.7562   -0.1993 O   0  0  0  0  0  0  0  0  0  0  0  0
   -1.2492    3.7541    0.0055 C   0  0  0  0  0  0  0  0  0  0  0  0
    2.5836   -2.5288   -0.1646 N   0  0  0  0  0  0  0  0  0  0  0  0
    0.5363   -2.6334    0.6192 O   0  0  0  0  0  0  0  0  0  0  0  0
    4.1941   -5.9068   -0.0476 O   0  0  0  0  0  0  0  0  0  0  0  0
    2.7061   -3.9458    0.1062 C   0  0  0  0  0  0  0  0  0  0  0  0
    4.0861   -4.5015   -0.3080 C   0  0  1  0  0  0  0  0  0  0  0  0
   -3.8098   -0.6798   -0.0497 C   0  0  0  0  0  0  0  0  0  0  0  0
   -3.9923    2.0858    0.0558 C   0  0  0  0  0  0  0  0  0  0  0  0
    5.6238   -6.1995   -0.1375 C   0  0  0  0  0  0  0  0  0  0  0  0
   -2.3162    4.5595    0.0282 C   0  0  0  0  0  0  0  0  0  0  0  0
    0.0847    4.3707   -0.0151 C   0  0  0  0  0  0  0  0  0  0  0  0
    5.2275   -3.9349    0.5052 C   0  0  0  0  0  0  0  0  0  0  0  0
   -5.0995    1.3487    0.0607 C   0  0  0  0  0  0  0  0  0  0  0  0
   -5.0047   -0.1007    0.0050 C   0  0  0  0  0  0  0  0  0  0  0  0
    6.3219   -4.8074   -0.0868 C   0  0  0  0  0  0  0  0  0  0  0  0
   -2.1750    6.0142    0.0355 C   0  0  0  0  0  0  0  0  0  0  0  0
    0.2181    5.6987   -0.0104 C   0  0  0  0  0  0  0  0  0  0  0  0
   -0.9641    6.5608    0.0162 C   0  0  0  0  0  0  0  0  0  0  0  0
  2  1  1  0
  3  1  1  0
  4  2  2  0
  5  3  1  0
  6  5  2  0
  7  1  1  0
  8  7  1  0
  9  3  2  0
 10  4  1  0
 11  8  1  0
 12  8  2  0
 13 15  1  0
 14 11  1  0
 15 14  1  1
 16  5  1  0
 17  6  1  0
 18 13  1  0
 19 10  2  0
 20 10  1  0
 21 15  1  0
 22 23  1  0
 23 16  2  0
 24 21  1  0
 25 19  1  0
 26 20  2  0
 27 26  1  0
  6  4  1  0
 22 17  2  0
 27 25  2  0
 18 24  1  0
M  END
>  <Name>  (76) 
Molecule

>  <IDNUMBER>  (76) 
BAS 05462951

>  <Num_H_Acceptors_Lipinski>  (76) 
6

>  <Num_H_Donors_Lipinski>  (76) 
1

>  <Molecular_Weight>  (76) 
363.40974

>  <ALogP>  (76) 
2.122

>  <Num_RotatableBonds>  (76) 
5

>  <Molecular_PolarSurfaceArea>  (76) 
71

>  <Num_H_Acceptors>  (76) 
4

>  <Num_H_Donors>  (76) 
1

>  <ADMET_Solubility>  (76) 
-3.56

>  <ADMET_Solubility_Level>  (76) 
3

>  <ADMET_Unknown_AlogP98>  (76) 
0

>  <ADMET_BBB>  (76) 
-0.622

>  <ADMET_BBB_Level>  (76) 
3

>  <ADMET_EXT_CYP2D6>  (76) 
-1.57495694618713

>  <ADMET_EXT_CYP2D6#Prediction>  (76) 
false

>  <ADMET_EXT_CYP2D6_Applicability>  (76) 
All properties and OPS components are within expected ranges.

>  <ADMET_EXT_CYP2D6_Applicability#MD>  (76) 
15.3755316793318

>  <ADMET_EXT_CYP2D6_Applicability#MDpvalue>  (76) 
7.65066200719939e-07

>  <ADMET_EXT_Hepatotoxic>  (76) 
-5.69541182975161

>  <ADMET_EXT_Hepatotoxic#Prediction>  (76) 
false

>  <ADMET_EXT_Hepatotoxic_Applicability>  (76) 
All properties and OPS components are within expected ranges.

>  <ADMET_EXT_Hepatotoxic_Applicability#MD>  (76) 
11.1634393800673

>  <ADMET_EXT_Hepatotoxic_Applicability#MDpvalue>  (76) 
0.00363809231482481

>  <ADMET_Absorption_Level>  (76) 
0

>  <ADMET_EXT_PPB>  (76) 
1.2586899431684

>  <ADMET_EXT_PPB#Prediction>  (76) 
true

>  <ADMET_EXT_PPB_Applicability>  (76) 
All properties and OPS components are within expected ranges.

>  <ADMET_EXT_PPB_Applicability#MD>  (76) 
12.4398551810961

>  <ADMET_EXT_PPB_Applicability#MDpvalue>  (76) 
0.0316485789002369

>  <ADMET_AlogP98>  (76) 
2.122

>  <ADMET_PSA_2D>  (76) 
71.017

$$$$
Molecule
     RDKit          3D

 20 20  0  0  0  0  0  0  0  0999 V2000
    0.5306   -0.8245    0.0295 C   0  0  0  0  0  0  0  0  0  0  0  0
   -0.2495    0.3106    0.0059 C   0  0  0  0  0  0  0  0  0  0  0  0
   -1.7727   -0.0733   -0.0047 C   0  0  0  0  0  0  0  0  0  0  0  0
   -1.9785   -1.3976    0.0013 C   0  0  0  0  0  0  0  0  0  0  0  0
   -0.5117   -2.1442    0.0219 S   0  0  0  0  0  0  0  0  0  0  0  0
    1.9753   -1.1229    0.0517 N   0  0  0  0  0  0  0  0  0  0  0  0
    0.1547    1.7869    0.0133 C   0  0  0  0  0  0  0  0  0  0  0  0
   -3.2772   -2.1312   -0.0029 C   0  0  0  0  0  0  0  0  0  0  0  0
    3.0932   -0.3833   -0.0276 C   0  0  0  0  0  0  0  0  0  0  0  0
   -0.7126    2.6656   -0.0172 O   0  0  0  0  0  0  0  0  0  0  0  0
   -3.2637   -3.3675    0.0028 O   0  0  0  0  0  0  0  0  0  0  0  0
    3.0993    0.8254   -0.1729 O   0  0  0  0  0  0  0  0  0  0  0  0
   -2.8992    0.9355   -0.0212 C   0  0  0  0  0  0  0  0  0  0  0  0
    1.4380    2.2103    0.0477 O   0  0  0  0  0  0  0  0  0  0  0  0
   -4.5074   -1.4658   -0.0094 O   0  0  0  0  0  0  0  0  0  0  0  0
    4.4185   -1.0742    0.0501 C   0  0  0  0  0  0  0  0  0  0  0  0
    1.4934    3.6409    0.0294 C   0  0  0  0  0  0  0  0  0  0  0  0
   -5.5781   -2.4143   -0.0079 C   0  0  0  0  0  0  0  0  0  0  0  0
    5.5380   -0.0158   -0.0214 C   0  0  0  0  0  0  0  0  0  0  0  0
    2.9663    4.0920    0.0317 C   0  0  0  0  0  0  0  0  0  0  0  0
  2  1  2  0
  3  2  1  0
  4  5  1  0
  5  1  1  0
  6  1  1  0
  7  2  1  0
  8  4  1  0
  9  6  1  0
 10  7  2  0
 11  8  2  0
 12  9  2  0
 13  3  1  0
 14  7  1  0
 15  8  1  0
 16  9  1  0
 17 14  1  0
 18 15  1  0
 19 16  1  0
 20 17  1  0
  4  3  2  0
M  END
>  <Name>  (77) 
Molecule

>  <IDNUMBER>  (77) 
BAS 05897261

>  <Num_H_Acceptors_Lipinski>  (77) 
6

>  <Num_H_Donors_Lipinski>  (77) 
1

>  <Molecular_Weight>  (77) 
299.34278

>  <ALogP>  (77) 
2.24

>  <Num_RotatableBonds>  (77) 
7

>  <Molecular_PolarSurfaceArea>  (77) 
109.94

>  <Num_H_Acceptors>  (77) 
5

>  <Num_H_Donors>  (77) 
1

>  <ADMET_Solubility>  (77) 
-3.27

>  <ADMET_Solubility_Level>  (77) 
3

>  <ADMET_Unknown_AlogP98>  (77) 
0

>  <ADMET_BBB>  (77) 
-0.71

>  <ADMET_BBB_Level>  (77) 
3

>  <ADMET_EXT_CYP2D6>  (77) 
-6.25621167622068

>  <ADMET_EXT_CYP2D6#Prediction>  (77) 
false

>  <ADMET_EXT_CYP2D6_Applicability>  (77) 
All properties and OPS components are within expected ranges.

>  <ADMET_EXT_CYP2D6_Applicability#MD>  (77) 
20.5662946629691

>  <ADMET_EXT_CYP2D6_Applicability#MDpvalue>  (77) 
8.05992018142988e-13

>  <ADMET_EXT_Hepatotoxic>  (77) 
-5.93992080414637

>  <ADMET_EXT_Hepatotoxic#Prediction>  (77) 
false

>  <ADMET_EXT_Hepatotoxic_Applicability>  (77) 
All properties and OPS components are within expected ranges.

>  <ADMET_EXT_Hepatotoxic_Applicability#MD>  (77) 
14.9157407483211

>  <ADMET_EXT_Hepatotoxic_Applicability#MDpvalue>  (77) 
4.93313820255843e-11

>  <ADMET_Absorption_Level>  (77) 
0

>  <ADMET_EXT_PPB>  (77) 
-0.935985513795049

>  <ADMET_EXT_PPB#Prediction>  (77) 
true

>  <ADMET_EXT_PPB_Applicability>  (77) 
All properties and OPS components are within expected ranges.

>  <ADMET_EXT_PPB_Applicability#MD>  (77) 
17.2509220881201

>  <ADMET_EXT_PPB_Applicability#MDpvalue>  (77) 
2.7346449347887e-13

>  <ADMET_AlogP98>  (77) 
2.428

>  <ADMET_PSA_2D>  (77) 
82.572

$$$$
Molecule
     RDKit          3D

 28 30  0  0  0  0  0  0  0  0999 V2000
   -3.4935   -0.5978   -0.4229 S   0  0  0  0  0  0  0  0  0  0  0  0
   -1.8953   -0.1599    0.1866 N   0  0  0  0  0  0  0  0  0  0  0  0
   -4.8647   -1.7298   -0.1968 C   0  0  0  0  0  0  0  0  0  0  0  0
    1.9900    1.8652   -0.0034 C   0  0  0  0  0  0  0  0  0  0  0  0
   -2.8406   -1.9314   -0.1039 O   0  0  0  0  0  0  0  0  0  0  0  0
   -4.1252    0.2988    0.6219 O   0  0  0  0  0  0  0  0  0  0  0  0
   -1.8099    1.3085   -0.0090 C   0  0  0  0  0  0  0  0  0  0  0  0
   -0.7972   -0.8411   -0.5732 C   0  0  0  0  0  0  0  0  0  0  0  0
    0.6544    1.1966   -0.2964 C   0  0  0  0  0  0  0  0  0  0  0  0
    1.9964    3.0572    0.3237 O   0  0  0  0  0  0  0  0  0  0  0  0
    3.1560    1.2327   -0.1490 N   0  0  0  0  0  0  0  0  0  0  0  0
   -0.4714    1.8833    0.4725 C   0  0  0  0  0  0  0  0  0  0  0  0
    0.6121   -0.3340   -0.1000 C   0  0  0  0  0  0  0  0  0  0  0  0
   -4.7177   -3.1952   -0.2175 C   0  0  0  0  0  0  0  0  0  0  0  0
   -6.0729   -1.1938   -0.0187 C   0  0  0  0  0  0  0  0  0  0  0  0
   -7.1330   -3.3571    0.1401 C   0  0  0  0  0  0  0  0  0  0  0  0
   -5.7975   -3.9692   -0.0588 C   0  0  0  0  0  0  0  0  0  0  0  0
   -7.2497   -2.0340    0.1597 C   0  0  0  0  0  0  0  0  0  0  0  0
    4.3840    1.9832    0.0754 C   0  0  0  0  0  0  0  0  0  0  0  0
   -8.2857   -4.1452    0.3074 O   0  0  0  0  0  0  0  0  0  0  0  0
    6.9142    1.8984   -0.0185 C   0  0  0  0  0  0  0  0  0  0  0  0
    5.6305    1.0823   -0.0977 C   0  0  0  0  0  0  0  0  0  0  0  0
   -7.9762   -5.5408    0.2495 C   0  0  0  0  0  0  0  0  0  0  0  0
    8.0936    1.2781   -0.0690 C   0  0  0  0  0  0  0  0  0  0  0  0
    6.8706    3.3660    0.0942 C   0  0  0  0  0  0  0  0  0  0  0  0
    9.3406    2.0513   -0.0082 C   0  0  0  0  0  0  0  0  0  0  0  0
    8.0047    4.0670    0.1446 C   0  0  0  0  0  0  0  0  0  0  0  0
    9.2984    3.3788    0.0918 C   0  0  0  0  0  0  0  0  0  0  0  0
  2  1  1  0
  3  1  1  0
  4  9  1  0
  5  1  2  0
  6  1  2  0
  7  2  1  0
  8  2  1  0
  9 13  1  0
 10  4  2  0
 11  4  1  0
 12  7  1  0
 13  8  1  0
 14  3  2  0
 15  3  1  0
 16 18  1  0
 17 14  1  0
 18 15  2  0
 19 11  1  0
 20 16  1  0
 21 22  1  0
 22 19  1  0
 23 20  1  0
 24 21  2  0
 25 21  1  0
 26 24  1  0
 27 25  2  0
 28 27  1  0
 16 17  2  0
  9 12  1  0
 28 26  2  0
M  END
>  <Name>  (78) 
Molecule

>  <IDNUMBER>  (78) 
BAS 05990828

>  <Num_H_Acceptors_Lipinski>  (78) 
6

>  <Num_H_Donors_Lipinski>  (78) 
1

>  <Molecular_Weight>  (78) 
402.50714

>  <ALogP>  (78) 
2.515

>  <Num_RotatableBonds>  (78) 
7

>  <Molecular_PolarSurfaceArea>  (78) 
84.09

>  <Num_H_Acceptors>  (78) 
4

>  <Num_H_Donors>  (78) 
1

>  <ADMET_Solubility>  (78) 
-3.523

>  <ADMET_Solubility_Level>  (78) 
3

>  <ADMET_Unknown_AlogP98>  (78) 
0

>  <ADMET_BBB>  (78) 
-0.595

>  <ADMET_BBB_Level>  (78) 
3

>  <ADMET_EXT_CYP2D6>  (78) 
-12.4582752952642

>  <ADMET_EXT_CYP2D6#Prediction>  (78) 
false

>  <ADMET_EXT_CYP2D6_Applicability>  (78) 
OPS PC6 out of range. Value: 4.5528. Training min, max, SD, explained variance: -5.674, 3.9834, 1.993, 0.0519.

>  <ADMET_EXT_CYP2D6_Applicability#MD>  (78) 
9.65331075914807

>  <ADMET_EXT_CYP2D6_Applicability#MDpvalue>  (78) 
0.188088705323166

>  <ADMET_EXT_Hepatotoxic>  (78) 
-4.69699032946494

>  <ADMET_EXT_Hepatotoxic#Prediction>  (78) 
false

>  <ADMET_EXT_Hepatotoxic_Applicability>  (78) 
OPS PC11 out of range. Value: 4.574. Training min, max, SD, explained variance: -4.0074, 4.0205, 1.463, 0.0267.

>  <ADMET_EXT_Hepatotoxic_Applicability#MD>  (78) 
10.3532106111805

>  <ADMET_EXT_Hepatotoxic_Applicability#MDpvalue>  (78) 
0.0393587269737988

>  <ADMET_Absorption_Level>  (78) 
0

>  <ADMET_EXT_PPB>  (78) 
8.57913476623915

>  <ADMET_EXT_PPB#Prediction>  (78) 
true

>  <ADMET_EXT_PPB_Applicability>  (78) 
All properties and OPS components are within expected ranges.

>  <ADMET_EXT_PPB_Applicability#MD>  (78) 
10.7449070730134

>  <ADMET_EXT_PPB_Applicability#MDpvalue>  (78) 
0.618990305818628

>  <ADMET_AlogP98>  (78) 
2.515

>  <ADMET_PSA_2D>  (78) 
76.995

$$$$
Molecule
     RDKit          3D

 25 26  0  0  0  0  0  0  0  0999 V2000
   -5.1402   -1.2535   -0.5565 S   0  0  0  0  0  0  0  0  0  0  0  0
   -6.2498   -1.0626    0.7976 N   0  0  0  0  0  0  0  0  0  0  0  0
   -3.5533   -0.5227   -0.2105 C   0  0  0  0  0  0  0  0  0  0  0  0
   -5.6914   -0.5239   -1.7704 O   0  0  0  0  0  0  0  0  0  0  0  0
   -4.9784   -2.7221   -0.8757 O   0  0  0  0  0  0  0  0  0  0  0  0
    2.5866    1.2710    0.1508 C   0  0  0  0  0  0  0  0  0  0  0  0
    3.8023    0.7221    0.0750 N   0  0  0  0  0  0  0  0  0  0  0  0
    6.2478   -0.4349    0.0276 N   0  0  0  0  0  0  0  0  0  0  0  0
    2.4809    2.5007    0.1731 O   0  0  0  0  0  0  0  0  0  0  0  0
   -3.4620    0.7804    0.0118 C   0  0  0  0  0  0  0  0  0  0  0  0
   -2.3331   -1.3485   -0.2506 C   0  0  0  0  0  0  0  0  0  0  0  0
    0.2078    1.3157    0.3115 O   0  0  0  0  0  0  0  0  0  0  0  0
    1.3350    0.4211    0.1953 C   0  0  0  0  0  0  0  0  0  0  0  0
    6.2467    0.8391    0.0119 C   0  0  0  0  0  0  0  0  0  0  0  0
   -1.0375    0.6699    0.1633 C   0  0  0  0  0  0  0  0  0  0  0  0
    4.9474    1.6025    0.0260 C   0  0  0  0  0  0  0  0  0  0  0  0
   -2.1515    1.4065    0.2143 C   0  0  0  0  0  0  0  0  0  0  0  0
   -1.1367   -0.7785   -0.0743 C   0  0  0  0  0  0  0  0  0  0  0  0
   -7.6285   -1.5100    0.4329 C   0  0  0  0  0  0  0  0  0  0  0  0
    7.4561   -1.1667    0.0177 C   0  0  0  0  0  0  0  0  0  0  0  0
    7.5132    1.5815   -0.0167 C   0  0  0  0  0  0  0  0  0  0  0  0
   -8.4995   -1.6243    1.6946 C   0  0  0  0  0  0  0  0  0  0  0  0
   -8.2965   -0.4885   -0.5180 C   0  0  0  0  0  0  0  0  0  0  0  0
    8.6316   -0.5391   -0.0073 C   0  0  0  0  0  0  0  0  0  0  0  0
    8.6631    0.9150   -0.0255 C   0  0  0  0  0  0  0  0  0  0  0  0
  2  1  1  0
  3  1  1  0
  4  1  2  0
  5  1  2  0
  6 13  1  0
  7  6  1  0
  8 14  2  0
  9  6  2  0
 10  3  2  0
 11  3  1  0
 12 15  1  0
 13 12  1  0
 14 16  1  0
 15 18  1  0
 16  7  1  0
 17 10  1  0
 18 11  2  0
 19  2  1  0
 20  8  1  0
 21 14  1  0
 22 19  1  0
 23 19  1  0
 24 20  2  0
 25 21  2  0
 15 17  2  0
 24 25  1  0
M  END
>  <Name>  (79) 
Molecule

>  <IDNUMBER>  (79) 
BAS 06178885

>  <Num_H_Acceptors_Lipinski>  (79) 
7

>  <Num_H_Donors_Lipinski>  (79) 
2

>  <Molecular_Weight>  (79) 
363.43134

>  <ALogP>  (79) 
1.158

>  <Num_RotatableBonds>  (79) 
8

>  <Molecular_PolarSurfaceArea>  (79) 
105.77

>  <Num_H_Acceptors>  (79) 
5

>  <Num_H_Donors>  (79) 
2

>  <ADMET_Solubility>  (79) 
-2.45

>  <ADMET_Solubility_Level>  (79) 
3

>  <ADMET_Unknown_AlogP98>  (79) 
0

>  <ADMET_BBB>  (79) 
-1.342

>  <ADMET_BBB_Level>  (79) 
3

>  <ADMET_EXT_CYP2D6>  (79) 
-14.8411673783156

>  <ADMET_EXT_CYP2D6#Prediction>  (79) 
false

>  <ADMET_EXT_CYP2D6_Applicability>  (79) 
All properties and OPS components are within expected ranges.

>  <ADMET_EXT_CYP2D6_Applicability#MD>  (79) 
14.5467686262899

>  <ADMET_EXT_CYP2D6_Applicability#MDpvalue>  (79) 
6.58277421913854e-06

>  <ADMET_EXT_Hepatotoxic>  (79) 
-4.4411620136807

>  <ADMET_EXT_Hepatotoxic#Prediction>  (79) 
false

>  <ADMET_EXT_Hepatotoxic_Applicability>  (79) 
All properties and OPS components are within expected ranges.

>  <ADMET_EXT_Hepatotoxic_Applicability#MD>  (79) 
12.5162670123444

>  <ADMET_EXT_Hepatotoxic_Applicability#MDpvalue>  (79) 
1.75407452752632e-05

>  <ADMET_Absorption_Level>  (79) 
0

>  <ADMET_EXT_PPB>  (79) 
-4.21151921428639

>  <ADMET_EXT_PPB#Prediction>  (79) 
false

>  <ADMET_EXT_PPB_Applicability>  (79) 
All properties and OPS components are within expected ranges.

>  <ADMET_EXT_PPB_Applicability#MD>  (79) 
12.6991850409875

>  <ADMET_EXT_PPB_Applicability#MDpvalue>  (79) 
0.0148771806333727

>  <ADMET_AlogP98>  (79) 
1.158

>  <ADMET_PSA_2D>  (79) 
97.713

$$$$
Molecule
     RDKit          3D

 20 21  0  0  0  0  0  0  0  0999 V2000
   -1.3509    0.4184   -0.0253 C   0  0  0  0  0  0  0  0  0  0  0  0
   -0.6006   -0.9071   -0.2864 C   0  0  0  0  0  0  0  0  0  0  0  0
   -2.7114    0.5311   -0.0174 N   0  0  0  0  0  0  0  0  0  0  0  0
    4.0789    0.6345   -0.2739 N   0  0  0  0  0  0  0  0  0  0  0  0
   -0.7330    1.4523    0.1893 O   0  0  0  0  0  0  0  0  0  0  0  0
   -1.2053   -1.9558   -0.4437 O   0  0  0  0  0  0  0  0  0  0  0  0
    0.7507   -0.9834   -0.3545 N   0  0  0  0  0  0  0  0  0  0  0  0
    6.2078    2.3917    0.4230 O   0  0  0  0  0  0  0  0  0  0  0  0
   -3.7190   -0.4991   -0.2564 C   0  0  0  0  0  0  0  0  0  0  0  0
    1.6674    0.1178   -0.2639 C   0  0  0  0  0  0  0  0  0  0  0  0
    3.0868   -0.4214   -0.0122 C   0  0  0  0  0  0  0  0  0  0  0  0
    3.8354    1.8293    0.5496 C   0  0  0  0  0  0  0  0  0  0  0  0
    5.4314    0.1203   -0.0146 C   0  0  0  0  0  0  0  0  0  0  0  0
    4.8842    2.9013    0.1744 C   0  0  0  0  0  0  0  0  0  0  0  0
    6.4568    1.2169   -0.3696 C   0  0  0  0  0  0  0  0  0  0  0  0
   -3.7515   -1.5755    0.8636 C   0  0  0  0  0  0  0  0  0  0  0  0
   -5.1045    0.1914   -0.2998 C   0  0  0  0  0  0  0  0  0  0  0  0
   -6.2075   -0.8467   -0.5992 C   0  0  0  0  0  0  0  0  0  0  0  0
   -4.8314   -2.6272    0.5303 C   0  0  0  0  0  0  0  0  0  0  0  0
   -6.2102   -1.9407    0.4868 C   0  0  0  0  0  0  0  0  0  0  0  0
  2  1  1  0
  3  1  1  0
  4 11  1  0
  5  1  2  0
  6  2  2  0
  7  2  1  0
  8 14  1  0
  9  3  1  0
 10  7  1  0
 11 10  1  0
 12  4  1  0
 13  4  1  0
 14 12  1  0
 15 13  1  0
 16  9  1  0
 17  9  1  0
 18 17  1  0
 19 16  1  0
 20 19  1  0
 20 18  1  0
  8 15  1  0
M  END
>  <Name>  (80) 
Molecule

>  <IDNUMBER>  (80) 
BAS 06293364

>  <Num_H_Acceptors_Lipinski>  (80) 
6

>  <Num_H_Donors_Lipinski>  (80) 
2

>  <Molecular_Weight>  (80) 
283.3666

>  <ALogP>  (80) 
0.412

>  <Num_RotatableBonds>  (80) 
5

>  <Molecular_PolarSurfaceArea>  (80) 
70.67

>  <Num_H_Acceptors>  (80) 
4

>  <Num_H_Donors>  (80) 
2

>  <ADMET_Solubility>  (80) 
-1.46

>  <ADMET_Solubility_Level>  (80) 
4

>  <ADMET_Unknown_AlogP98>  (80) 
0

>  <ADMET_BBB>  (80) 
-1.174

>  <ADMET_BBB_Level>  (80) 
3

>  <ADMET_EXT_CYP2D6>  (80) 
-0.676037005279703

>  <ADMET_EXT_CYP2D6#Prediction>  (80) 
false

>  <ADMET_EXT_CYP2D6_Applicability>  (80) 
All properties and OPS components are within expected ranges.

>  <ADMET_EXT_CYP2D6_Applicability#MD>  (80) 
11.6993367160835

>  <ADMET_EXT_CYP2D6_Applicability#MDpvalue>  (80) 
0.00557389313434386

>  <ADMET_EXT_Hepatotoxic>  (80) 
-7.28412947076041

>  <ADMET_EXT_Hepatotoxic#Prediction>  (80) 
false

>  <ADMET_EXT_Hepatotoxic_Applicability>  (80) 
All properties and OPS components are within expected ranges.

>  <ADMET_EXT_Hepatotoxic_Applicability#MD>  (80) 
9.33013536246886

>  <ADMET_EXT_Hepatotoxic_Applicability#MDpvalue>  (80) 
0.300328639805047

>  <ADMET_Absorption_Level>  (80) 
0

>  <ADMET_EXT_PPB>  (80) 
-7.71098116642418

>  <ADMET_EXT_PPB#Prediction>  (80) 
false

>  <ADMET_EXT_PPB_Applicability>  (80) 
All properties and OPS components are within expected ranges.

>  <ADMET_EXT_PPB_Applicability#MD>  (80) 
12.5575464385361

>  <ADMET_EXT_PPB_Applicability#MDpvalue>  (80) 
0.0226929412352333

>  <ADMET_AlogP98>  (80) 
0.412

>  <ADMET_PSA_2D>  (80) 
72.504

$$$$
Molecule
     RDKit          3D

 28 31  0  0  0  0  0  0  0  0999 V2000
   -3.5987   -2.6960    0.0085 S   0  0  0  0  0  0  0  0  0  0  0  0
   -2.7474   -1.2057   -0.1455 N   0  0  0  0  0  0  0  0  0  0  0  0
   -3.6114   -0.1538   -0.1643 C   0  0  0  0  0  0  0  0  0  0  0  0
   -1.2683   -1.1823   -0.2698 C   0  0  0  0  0  0  0  0  0  0  0  0
   -5.0289   -0.5606   -0.0396 C   0  0  0  0  0  0  0  0  0  0  0  0
   -5.1602   -1.9610    0.0610 C   0  0  0  0  0  0  0  0  0  0  0  0
   -0.5292    0.1246    0.0515 C   0  0  0  0  0  0  0  0  0  0  0  0
    0.8714    0.1857   -0.0580 N   0  0  0  0  0  0  0  0  0  0  0  0
   -3.4395   -3.5965   -1.2011 O   0  0  0  0  0  0  0  0  0  0  0  0
   -3.2814   -3.4352    1.2943 O   0  0  0  0  0  0  0  0  0  0  0  0
    3.7150    0.3574   -0.1989 N   0  0  0  0  0  0  0  0  0  0  0  0
   -3.2867    1.0356   -0.2883 O   0  0  0  0  0  0  0  0  0  0  0  0
   -1.1234    1.1248    0.4579 O   0  0  0  0  0  0  0  0  0  0  0  0
    1.5327    1.4301    0.2734 C   0  0  0  0  0  0  0  0  0  0  0  0
    1.6179   -0.9528   -0.5654 C   0  0  0  0  0  0  0  0  0  0  0  0
    5.1533    0.2021    0.1956 C   0  0  0  0  0  0  0  0  0  0  0  0
    3.0862   -0.9681   -0.0736 C   0  0  0  0  0  0  0  0  0  0  0  0
    2.9828    1.2179    0.7493 C   0  0  0  0  0  0  0  0  0  0  0  0
   -6.0812    0.2412   -0.0259 C   0  0  0  0  0  0  0  0  0  0  0  0
   -6.3395   -2.5636    0.1739 C   0  0  0  0  0  0  0  0  0  0  0  0
    6.0593    1.4418    0.0494 C   0  0  0  0  0  0  0  0  0  0  0  0
    7.3514    1.3148    0.3541 C   0  0  0  0  0  0  0  0  0  0  0  0
    5.5639    2.7517   -0.4286 C   0  0  0  0  0  0  0  0  0  0  0  0
   -7.4206   -0.3753    0.1007 C   0  0  0  0  0  0  0  0  0  0  0  0
   -7.5421   -1.7075    0.1945 C   0  0  0  0  0  0  0  0  0  0  0  0
    8.2647    2.4551    0.2266 C   0  0  0  0  0  0  0  0  0  0  0  0
    6.3951    3.7873   -0.5380 C   0  0  0  0  0  0  0  0  0  0  0  0
    7.8090    3.6327   -0.1953 C   0  0  0  0  0  0  0  0  0  0  0  0
  2  1  1  0
  3  2  1  0
  4  2  1  0
  5  6  2  0
  6  1  1  0
  7  4  1  0
  8  7  1  0
  9  1  2  0
 10  1  2  0
 11 18  1  0
 12  3  2  0
 13  7  2  0
 14  8  1  0
 15  8  1  0
 16 11  1  0
 17 15  1  0
 18 14  1  0
 19  5  1  0
 20  6  1  0
 21 16  1  0
 22 21  2  0
 23 21  1  0
 24 25  1  0
 25 20  2  0
 26 22  1  0
 27 23  2  0
 28 27  1  0
  3  5  1  0
 24 19  2  0
 11 17  1  0
 28 26  2  0
M  END
>  <Name>  (81) 
Molecule

>  <IDNUMBER>  (81) 
BAS 06741954

>  <Num_H_Acceptors_Lipinski>  (81) 
7

>  <Num_H_Donors_Lipinski>  (81) 
0

>  <Molecular_Weight>  (81) 
399.46344

>  <ALogP>  (81) 
1.371

>  <Num_RotatableBonds>  (81) 
4

>  <Molecular_PolarSurfaceArea>  (81) 
86.38

>  <Num_H_Acceptors>  (81) 
5

>  <Num_H_Donors>  (81) 
0

>  <ADMET_Solubility>  (81) 
-2.944

>  <ADMET_Solubility_Level>  (81) 
3

>  <ADMET_Unknown_AlogP98>  (81) 
0

>  <ADMET_BBB>  (81) 
-0.984

>  <ADMET_BBB_Level>  (81) 
3

>  <ADMET_EXT_CYP2D6>  (81) 
-15.4709149298974

>  <ADMET_EXT_CYP2D6#Prediction>  (81) 
false

>  <ADMET_EXT_CYP2D6_Applicability>  (81) 
All properties and OPS components are within expected ranges.
Unknown FCFP_2 feature: -1096278874: [*]OS(=O)(=O)[c](:[*]):[*]

>  <ADMET_EXT_CYP2D6_Applicability#MD>  (81) 
12.3447395507018

>  <ADMET_EXT_CYP2D6_Applicability#MDpvalue>  (81) 
0.00138095942075454

>  <ADMET_EXT_Hepatotoxic>  (81) 
-8.03954866707079

>  <ADMET_EXT_Hepatotoxic#Prediction>  (81) 
false

>  <ADMET_EXT_Hepatotoxic_Applicability>  (81) 
All properties and OPS components are within expected ranges.
Unknown FCFP_2 feature: -1096278874: [*]OS(=O)(=O)[c](:[*]):[*]

>  <ADMET_EXT_Hepatotoxic_Applicability#MD>  (81) 
9.49456779848494

>  <ADMET_EXT_Hepatotoxic_Applicability#MDpvalue>  (81) 
0.233559055537211

>  <ADMET_Absorption_Level>  (81) 
0

>  <ADMET_EXT_PPB>  (81) 
4.50149504673801

>  <ADMET_EXT_PPB#Prediction>  (81) 
true

>  <ADMET_EXT_PPB_Applicability>  (81) 
All properties and OPS components are within expected ranges.

>  <ADMET_EXT_PPB_Applicability#MD>  (81) 
12.3162102119254

>  <ADMET_EXT_PPB_Applicability#MDpvalue>  (81) 
0.0440919878436812

>  <ADMET_AlogP98>  (81) 
1.371

>  <ADMET_PSA_2D>  (81) 
79.26

$$$$
Molecule
     RDKit          3D

 30 33  0  0  0  0  0  0  0  0999 V2000
   -0.0907   -1.5273   -0.0268 S   0  0  0  0  0  0  0  0  0  0  0  0
   -0.0980    0.3051   -0.0058 N   0  0  0  0  0  0  0  0  0  0  0  0
   -1.2866    1.1260    0.0188 C   0  0  0  0  0  0  0  0  0  0  0  0
    1.1969    1.0619   -0.0466 C   0  0  0  0  0  0  0  0  0  0  0  0
   -2.4693    0.5721    0.0695 C   0  0  0  0  0  0  0  0  0  0  0  0
   -3.6876    1.3003    0.0698 C   0  0  0  0  0  0  0  0  0  0  0  0
    2.5062    0.2513    0.0426 C   0  0  0  0  0  0  0  0  0  0  0  0
    0.7380   -1.9389   -1.2295 O   0  0  0  0  0  0  0  0  0  0  0  0
    0.6783   -1.9880    1.1969 O   0  0  0  0  0  0  0  0  0  0  0  0
   -1.5790   -2.6494   -0.0717 C   0  0  0  0  0  0  0  0  0  0  0  0
   -3.6624    2.6250    0.0344 C   0  0  0  0  0  0  0  0  0  0  0  0
    3.6917    0.8633   -0.0085 N   0  0  0  0  0  0  0  0  0  0  0  0
   -4.8595    0.6053    0.0847 O   0  0  0  0  0  0  0  0  0  0  0  0
   -1.2184    2.6027   -0.0206 C   0  0  0  0  0  0  0  0  0  0  0  0
   -4.8358    3.3284    0.0491 O   0  0  0  0  0  0  0  0  0  0  0  0
    2.5018   -0.9731    0.1622 O   0  0  0  0  0  0  0  0  0  0  0  0
   -2.3537    3.3169   -0.0131 C   0  0  0  0  0  0  0  0  0  0  0  0
    7.3382    0.0310   -0.1648 O   0  0  0  0  0  0  0  0  0  0  0  0
    4.8839    0.0481    0.0896 C   0  0  0  0  0  0  0  0  0  0  0  0
    6.1555    0.8326   -0.3016 C   0  0  1  0  0  0  0  0  0  0  0  0
   -6.0529    1.2435   -0.2273 C   0  0  0  0  0  0  0  0  0  0  0  0
   -6.0504    2.6714    0.3409 C   0  0  0  0  0  0  0  0  0  0  0  0
    8.4481    0.9837   -0.1958 C   0  0  0  0  0  0  0  0  0  0  0  0
   -1.3386   -4.0855    0.1236 C   0  0  0  0  0  0  0  0  0  0  0  0
   -2.8380   -2.2642   -0.2741 C   0  0  0  0  0  0  0  0  0  0  0  0
    6.4494    2.0067    0.6027 C   0  0  0  0  0  0  0  0  0  0  0  0
    7.7814    2.3804   -0.0256 C   0  0  0  0  0  0  0  0  0  0  0  0
   -2.3484   -4.9578    0.1090 C   0  0  0  0  0  0  0  0  0  0  0  0
   -3.9512   -3.2065   -0.2840 C   0  0  0  0  0  0  0  0  0  0  0  0
   -3.7191   -4.4994   -0.0988 C   0  0  0  0  0  0  0  0  0  0  0  0
  2  1  1  0
  3  2  1  0
  4  2  1  0
  5  3  2  0
  6  5  1  0
  7  4  1  0
  8  1  2  0
  9  1  2  0
 10  1  1  0
 11 17  1  0
 12  7  1  0
 13  6  1  0
 14  3  1  0
 15 11  1  0
 16  7  2  0
 17 14  2  0
 18 20  1  0
 19 12  1  0
 20 19  1  1
 21 13  1  0
 22 15  1  0
 23 18  1  0
 24 10  2  0
 25 10  1  0
 26 20  1  0
 27 26  1  0
 28 24  1  0
 29 25  2  0
 30 28  2  0
 30 29  1  0
 11  6  2  0
 22 21  1  0
 23 27  1  0
M  END
>  <Name>  (82) 
Molecule

>  <IDNUMBER>  (82) 
BAS 06837910

>  <Num_H_Acceptors_Lipinski>  (82) 
8

>  <Num_H_Donors_Lipinski>  (82) 
1

>  <Molecular_Weight>  (82) 
432.49006

>  <ALogP>  (82) 
1.728

>  <Num_RotatableBonds>  (82) 
7

>  <Molecular_PolarSurfaceArea>  (82) 
102.55

>  <Num_H_Acceptors>  (82) 
6

>  <Num_H_Donors>  (82) 
1

>  <ADMET_Solubility>  (82) 
-3.282

>  <ADMET_Solubility_Level>  (82) 
3

>  <ADMET_Unknown_AlogP98>  (82) 
0

>  <ADMET_BBB>  (82) 
-1.121

>  <ADMET_BBB_Level>  (82) 
3

>  <ADMET_EXT_CYP2D6>  (82) 
-14.3335649046784

>  <ADMET_EXT_CYP2D6#Prediction>  (82) 
false

>  <ADMET_EXT_CYP2D6_Applicability>  (82) 
All properties and OPS components are within expected ranges.
Unknown FCFP_2 feature: -1096278874: [*]OS(=O)(=O)[c](:[*]):[*]

>  <ADMET_EXT_CYP2D6_Applicability#MD>  (82) 
13.055573881159

>  <ADMET_EXT_CYP2D6_Applicability#MDpvalue>  (82) 
0.000266854428935686

>  <ADMET_EXT_Hepatotoxic>  (82) 
-6.66722193873658

>  <ADMET_EXT_Hepatotoxic#Prediction>  (82) 
false

>  <ADMET_EXT_Hepatotoxic_Applicability>  (82) 
All properties and OPS components are within expected ranges.
Unknown FCFP_2 feature: -1096278874: [*]OS(=O)(=O)[c](:[*]):[*]

>  <ADMET_EXT_Hepatotoxic_Applicability#MD>  (82) 
11.9303610209635

>  <ADMET_EXT_Hepatotoxic_Applicability#MDpvalue>  (82) 
0.000214561167662068

>  <ADMET_Absorption_Level>  (82) 
0

>  <ADMET_EXT_PPB>  (82) 
3.90209007044535

>  <ADMET_EXT_PPB#Prediction>  (82) 
true

>  <ADMET_EXT_PPB_Applicability>  (82) 
All properties and OPS components are within expected ranges.

>  <ADMET_EXT_PPB_Applicability#MD>  (82) 
12.3102497705359

>  <ADMET_EXT_PPB_Applicability#MDpvalue>  (82) 
0.0447816469526627

>  <ADMET_AlogP98>  (82) 
1.728

>  <ADMET_PSA_2D>  (82) 
94.855

$$$$
Molecule
     RDKit          3D

 25 27  0  0  0  0  0  0  0  0999 V2000
    2.3563   -1.5215   -0.3434 N   0  0  0  0  0  0  0  0  0  0  0  0
    2.2694   -0.0468   -0.5194 C   0  0  1  0  0  0  0  0  0  0  0  0
    1.1937   -1.6631    0.2373 C   0  0  0  0  0  0  0  0  0  0  0  0
    0.9682   -0.1983    0.4622 C   0  0  2  0  0  0  0  0  0  0  0  0
    3.5700   -2.0231    0.2908 C   0  0  2  0  0  0  0  0  0  0  0  0
    3.7478    0.4623    0.3861 S   0  0  0  0  0  0  0  0  0  0  0  0
    4.6743   -1.0013   -0.0143 C   0  0  0  0  0  0  0  0  0  0  0  0
   -0.2817    0.3778   -0.0667 N   0  0  0  0  0  0  0  0  0  0  0  0
   -1.4655   -0.1787    0.2503 C   0  0  0  0  0  0  0  0  0  0  0  0
    3.8662   -3.4910    0.0364 C   0  0  0  0  0  0  0  0  0  0  0  0
    0.3359   -2.4521   -0.1678 O   0  0  0  0  0  0  0  0  0  0  0  0
   -2.7858    0.4592   -0.1319 C   0  0  2  0  0  0  0  0  0  0  0  0
   -2.7088    1.9018    0.1577 O   0  0  0  0  0  0  0  0  0  0  0  0
    5.1640   -3.9924    0.1297 O   0  0  0  0  0  0  0  0  0  0  0  0
   -1.4979   -1.1933    0.9413 O   0  0  0  0  0  0  0  0  0  0  0  0
    2.9360   -4.2660   -0.2101 O   0  0  0  0  0  0  0  0  0  0  0  0
    4.9854   -1.0232   -1.5236 C   0  0  0  0  0  0  0  0  0  0  0  0
    5.9667   -1.1610    0.8155 C   0  0  0  0  0  0  0  0  0  0  0  0
   -3.8809    2.7294   -0.0664 C   0  0  0  0  0  0  0  0  0  0  0  0
   -3.8328   -0.2966    0.7413 C   0  0  0  0  0  0  0  0  0  0  0  0
   -3.8047    4.0169    0.2704 C   0  0  0  0  0  0  0  0  0  0  0  0
   -5.1611    2.2203   -0.6265 C   0  0  0  0  0  0  0  0  0  0  0  0
   -4.9600    4.9088    0.1026 C   0  0  0  0  0  0  0  0  0  0  0  0
   -6.2093    3.0314   -0.7685 C   0  0  0  0  0  0  0  0  0  0  0  0
   -6.1055    4.4375   -0.3851 C   0  0  0  0  0  0  0  0  0  0  0  0
  2  1  1  0
  3  1  1  0
  4  3  1  0
  5  1  1  0
  2  6  1  1
  7  5  1  0
  4  8  1  6
  9  8  1  0
  5 10  1  6
 11  3  2  0
 12  9  1  0
 13 12  1  0
 14 10  1  0
 15  9  2  0
 16 10  2  0
 17  7  1  0
 18  7  1  0
 19 13  1  0
 12 20  1  1
 21 19  2  0
 22 19  1  0
 23 21  1  0
 24 22  2  0
 25 24  1  0
  4  2  1  0
  7  6  1  0
 25 23  2  0
M  CHG  1  14  -1
M  END
>  <Name>  (83) 
Molecule

>  <IDNUMBER>  (83) 
BAS 07100915

>  <Num_H_Acceptors_Lipinski>  (83) 
7

>  <Num_H_Donors_Lipinski>  (83) 
1

>  <Molecular_Weight>  (83) 
363.40816

>  <ALogP>  (83) 
-0.066

>  <Num_RotatableBonds>  (83) 
5

>  <Molecular_PolarSurfaceArea>  (83) 
124.07

>  <Num_H_Acceptors>  (83) 
6

>  <Num_H_Donors>  (83) 
1

>  <ADMET_Solubility>  (83) 
-1.935

>  <ADMET_Solubility_Level>  (83) 
4

>  <ADMET_Unknown_AlogP98>  (83) 
0

>  <ADMET_BBB>  (83) 
-1.666

>  <ADMET_BBB_Level>  (83) 
3

>  <ADMET_EXT_CYP2D6>  (83) 
-8.69800989481989

>  <ADMET_EXT_CYP2D6#Prediction>  (83) 
false

>  <ADMET_EXT_CYP2D6_Applicability>  (83) 
All properties and OPS components are within expected ranges.
Unknown FCFP_2 feature: -367494947: [*]C([*])([*])C(=O)[O-]
Unknown FCFP_2 feature: 260714409: [*]C(=[*])[O-]

>  <ADMET_EXT_CYP2D6_Applicability#MD>  (83) 
13.0530495700219

>  <ADMET_EXT_CYP2D6_Applicability#MDpvalue>  (83) 
0.000268461615689888

>  <ADMET_EXT_Hepatotoxic>  (83) 
-10.8761776051624

>  <ADMET_EXT_Hepatotoxic#Prediction>  (83) 
false

>  <ADMET_EXT_Hepatotoxic_Applicability>  (83) 
All properties and OPS components are within expected ranges.

>  <ADMET_EXT_Hepatotoxic_Applicability#MD>  (83) 
12.2563878917673

>  <ADMET_EXT_Hepatotoxic_Applicability#MDpvalue>  (83) 
5.51307692974695e-05

>  <ADMET_Absorption_Level>  (83) 
0

>  <ADMET_EXT_PPB>  (83) 
-13.9080674129853

>  <ADMET_EXT_PPB#Prediction>  (83) 
false

>  <ADMET_EXT_PPB_Applicability>  (83) 
All properties and OPS components are within expected ranges.

>  <ADMET_EXT_PPB_Applicability#MD>  (83) 
13.3834122867377

>  <ADMET_EXT_PPB_Applicability#MDpvalue>  (83) 
0.00138983336993116

>  <ADMET_AlogP98>  (83) 
-0.066

>  <ADMET_PSA_2D>  (83) 
94.295

$$$$
Molecule
     RDKit          3D

 20 22  0  0  0  0  0  0  0  0999 V2000
   -1.1130    0.1136    0.0367 C   0  0  0  0  0  0  0  0  0  0  0  0
   -1.1060    1.4209   -0.0543 C   0  0  0  0  0  0  0  0  0  0  0  0
   -2.2887   -0.6182    0.1139 N   0  0  0  0  0  0  0  0  0  0  0  0
   -3.5328    1.5002    0.0069 N   0  0  0  0  0  0  0  0  0  0  0  0
   -3.5217    0.0792    0.0957 C   0  0  0  0  0  0  0  0  0  0  0  0
   -2.3177    2.1964   -0.0715 C   0  0  0  0  0  0  0  0  0  0  0  0
    0.1983   -0.3638    0.0383 N   0  0  0  0  0  0  0  0  0  0  0  0
    0.1876    1.8578   -0.1267 N   0  0  0  0  0  0  0  0  0  0  0  0
    0.9570    0.6679   -0.0631 C   0  0  0  0  0  0  0  0  0  0  0  0
   -4.5867   -0.5442    0.1601 O   0  0  0  0  0  0  0  0  0  0  0  0
    3.1023   -0.6397    0.2521 N   0  0  0  0  0  0  0  0  0  0  0  0
   -2.2879    3.4302   -0.1488 O   0  0  0  0  0  0  0  0  0  0  0  0
    2.4780    0.6621   -0.1070 C   0  0  0  0  0  0  0  0  0  0  0  0
   -2.2564   -2.0490    0.2002 C   0  0  0  0  0  0  0  0  0  0  0  0
   -4.7764    2.2138   -0.0036 C   0  0  0  0  0  0  0  0  0  0  0  0
    2.7169   -1.7210   -0.6919 C   0  0  0  0  0  0  0  0  0  0  0  0
    4.5744   -0.4570    0.2270 C   0  0  0  0  0  0  0  0  0  0  0  0
    3.3648   -3.0526   -0.2539 C   0  0  0  0  0  0  0  0  0  0  0  0
    5.2856   -1.7517    0.6696 C   0  0  0  0  0  0  0  0  0  0  0  0
    4.8926   -2.8923   -0.2797 C   0  0  0  0  0  0  0  0  0  0  0  0
  2  1  2  0
  3  1  1  0
  4  5  1  0
  5  3  1  0
  6  2  1  0
  7  1  1  0
  8  2  1  0
  9  7  2  0
 10  5  2  0
 11 13  1  0
 12  6  2  0
 13  9  1  0
 14  3  1  0
 15  4  1  0
 16 11  1  0
 17 11  1  0
 18 16  1  0
 19 17  1  0
 20 19  1  0
  9  8  1  0
  4  6  1  0
 20 18  1  0
M  END
>  <Name>  (84) 
Molecule

>  <IDNUMBER>  (84) 
BAS 07401462

>  <Num_H_Acceptors_Lipinski>  (84) 
7

>  <Num_H_Donors_Lipinski>  (84) 
1

>  <Molecular_Weight>  (84) 
277.32226

>  <ALogP>  (84) 
0.878

>  <Num_RotatableBonds>  (84) 
2

>  <Molecular_PolarSurfaceArea>  (84) 
72.53

>  <Num_H_Acceptors>  (84) 
4

>  <Num_H_Donors>  (84) 
1

>  <ADMET_Solubility>  (84) 
-3.088

>  <ADMET_Solubility_Level>  (84) 
3

>  <ADMET_Unknown_AlogP98>  (84) 
0

>  <ADMET_BBB>  (84) 
-0.844

>  <ADMET_BBB_Level>  (84) 
3

>  <ADMET_EXT_CYP2D6>  (84) 
-8.68868973484833

>  <ADMET_EXT_CYP2D6#Prediction>  (84) 
false

>  <ADMET_EXT_CYP2D6_Applicability>  (84) 
All properties and OPS components are within expected ranges.

>  <ADMET_EXT_CYP2D6_Applicability#MD>  (84) 
17.0222296512464

>  <ADMET_EXT_CYP2D6_Applicability#MDpvalue>  (84) 
9.68413345010172e-09

>  <ADMET_EXT_Hepatotoxic>  (84) 
-11.8565330351666

>  <ADMET_EXT_Hepatotoxic#Prediction>  (84) 
false

>  <ADMET_EXT_Hepatotoxic_Applicability>  (84) 
All properties and OPS components are within expected ranges.

>  <ADMET_EXT_Hepatotoxic_Applicability#MD>  (84) 
9.37921227513695

>  <ADMET_EXT_Hepatotoxic_Applicability#MDpvalue>  (84) 
0.279449291390754

>  <ADMET_Absorption_Level>  (84) 
0

>  <ADMET_EXT_PPB>  (84) 
-13.292389415321

>  <ADMET_EXT_PPB#Prediction>  (84) 
false

>  <ADMET_EXT_PPB_Applicability>  (84) 
All properties and OPS components are within expected ranges.

>  <ADMET_EXT_PPB_Applicability#MD>  (84) 
12.3146119041876

>  <ADMET_EXT_PPB_Applicability#MDpvalue>  (84) 
0.044276058343125

>  <ADMET_AlogP98>  (84) 
1.402

>  <ADMET_PSA_2D>  (84) 
70.975

$$$$
Molecule
     RDKit          3D

 22 24  0  0  0  0  0  0  0  0999 V2000
   -1.6917    0.4920   -0.0394 C   0  0  0  0  0  0  0  0  0  0  0  0
   -1.6642    1.7995    0.0510 C   0  0  0  0  0  0  0  0  0  0  0  0
   -2.8802   -0.2205   -0.1118 N   0  0  0  0  0  0  0  0  0  0  0  0
   -4.0895    1.9186   -0.0015 N   0  0  0  0  0  0  0  0  0  0  0  0
   -4.1020    0.4976   -0.0901 C   0  0  0  0  0  0  0  0  0  0  0  0
   -2.8632    2.5943    0.0730 C   0  0  0  0  0  0  0  0  0  0  0  0
   -0.3860   -0.0058   -0.0469 N   0  0  0  0  0  0  0  0  0  0  0  0
   -0.3647    2.2161    0.1169 N   0  0  0  0  0  0  0  0  0  0  0  0
    0.3873    1.0156    0.0497 C   0  0  0  0  0  0  0  0  0  0  0  0
    2.5213   -0.3162   -0.2640 N   0  0  0  0  0  0  0  0  0  0  0  0
   -5.1775   -0.1078   -0.1512 O   0  0  0  0  0  0  0  0  0  0  0  0
    4.2862   -2.5305    0.3070 N   0  0  0  0  0  0  0  0  0  0  0  0
   -2.8129    3.8277    0.1501 O   0  0  0  0  0  0  0  0  0  0  0  0
    1.9076    0.9921    0.0853 C   0  0  0  0  0  0  0  0  0  0  0  0
   -2.8721   -1.6515   -0.1978 C   0  0  0  0  0  0  0  0  0  0  0  0
   -5.3212    2.6528    0.0124 C   0  0  0  0  0  0  0  0  0  0  0  0
    3.9885   -0.1453   -0.2346 C   0  0  0  0  0  0  0  0  0  0  0  0
    2.1409   -1.3839    0.6881 C   0  0  0  0  0  0  0  0  0  0  0  0
    4.6808   -1.4632   -0.6319 C   0  0  0  0  0  0  0  0  0  0  0  0
    2.8226   -2.7071    0.2706 C   0  0  0  0  0  0  0  0  0  0  0  0
    4.9483   -3.7942   -0.0646 C   0  0  0  0  0  0  0  0  0  0  0  0
    6.4812   -3.6348    0.0292 C   0  0  0  0  0  0  0  0  0  0  0  0
  2  1  2  0
  3  1  1  0
  4  5  1  0
  5  3  1  0
  6  2  1  0
  7  1  1  0
  8  2  1  0
  9  7  2  0
 10 14  1  0
 11  5  2  0
 12 19  1  0
 13  6  2  0
 14  9  1  0
 15  3  1  0
 16  4  1  0
 17 10  1  0
 18 10  1  0
 19 17  1  0
 20 18  1  0
 21 12  1  0
 22 21  1  0
  9  8  1  0
  4  6  1  0
 12 20  1  0
M  END
>  <Name>  (85) 
Molecule

>  <IDNUMBER>  (85) 
BAS 07401464

>  <Num_H_Acceptors_Lipinski>  (85) 
8

>  <Num_H_Donors_Lipinski>  (85) 
1

>  <Molecular_Weight>  (85) 
306.36348

>  <ALogP>  (85) 
0.267

>  <Num_RotatableBonds>  (85) 
3

>  <Molecular_PolarSurfaceArea>  (85) 
75.78

>  <Num_H_Acceptors>  (85) 
5

>  <Num_H_Donors>  (85) 
1

>  <ADMET_Solubility>  (85) 
-2.624

>  <ADMET_Solubility_Level>  (85) 
3

>  <ADMET_Unknown_AlogP98>  (85) 
0

>  <ADMET_BBB>  (85) 
-1.086

>  <ADMET_BBB_Level>  (85) 
3

>  <ADMET_EXT_CYP2D6>  (85) 
-10.2374948334455

>  <ADMET_EXT_CYP2D6#Prediction>  (85) 
false

>  <ADMET_EXT_CYP2D6_Applicability>  (85) 
OPS PC15 out of range. Value: 3.7453. Training min, max, SD, explained variance: -2.6925, 3.1146, 1.2, 0.0188.

>  <ADMET_EXT_CYP2D6_Applicability#MD>  (85) 
15.6297018730738

>  <ADMET_EXT_CYP2D6_Applicability#MDpvalue>  (85) 
3.92102950798242e-07

>  <ADMET_EXT_Hepatotoxic>  (85) 
-10.4386831003614

>  <ADMET_EXT_Hepatotoxic#Prediction>  (85) 
false

>  <ADMET_EXT_Hepatotoxic_Applicability>  (85) 
All properties and OPS components are within expected ranges.

>  <ADMET_EXT_Hepatotoxic_Applicability#MD>  (85) 
9.87588946349727

>  <ADMET_EXT_Hepatotoxic_Applicability#MDpvalue>  (85) 
0.116691255713364

>  <ADMET_Absorption_Level>  (85) 
0

>  <ADMET_EXT_PPB>  (85) 
-11.2545592409898

>  <ADMET_EXT_PPB#Prediction>  (85) 
false

>  <ADMET_EXT_PPB_Applicability>  (85) 
All properties and OPS components are within expected ranges.

>  <ADMET_EXT_PPB_Applicability#MD>  (85) 
12.3698917564819

>  <ADMET_EXT_PPB_Applicability#MDpvalue>  (85) 
0.0382664226765598

>  <ADMET_AlogP98>  (85) 
0.791

>  <ADMET_PSA_2D>  (85) 
74.327

$$$$
Molecule
     RDKit          3D

 21 22  0  0  0  0  0  0  0  0999 V2000
   -1.2976    0.3116    0.0139 C   0  0  0  0  0  0  0  0  0  0  0  0
   -0.0864   -0.5068   -0.1028 C   0  0  0  0  0  0  0  0  0  0  0  0
   -2.4982   -0.2975   -0.0603 N   0  0  0  0  0  0  0  0  0  0  0  0
    4.7875   -0.5579   -0.2744 N   0  0  0  0  0  0  0  0  0  0  0  0
   -1.1842    1.5314    0.1520 O   0  0  0  0  0  0  0  0  0  0  0  0
   -0.1751   -1.7248   -0.2703 O   0  0  0  0  0  0  0  0  0  0  0  0
    1.1121    0.0767   -0.0561 N   0  0  0  0  0  0  0  0  0  0  0  0
    7.3343   -1.6884    0.3590 O   0  0  0  0  0  0  0  0  0  0  0  0
   -3.7655    0.3641   -0.0088 C   0  0  0  0  0  0  0  0  0  0  0  0
   -6.2975    1.5783    0.0495 C   0  0  0  0  0  0  0  0  0  0  0  0
   -7.8554    2.3267    0.0814 Cl  0  0  0  0  0  0  0  0  0  0  0  0
   -4.9847   -0.4552   -0.0423 C   0  0  0  0  0  0  0  0  0  0  0  0
   -3.8769    1.6922    0.0493 C   0  0  0  0  0  0  0  0  0  0  0  0
    2.3062   -0.7082   -0.2250 C   0  0  0  0  0  0  0  0  0  0  0  0
   -6.1857    0.1215   -0.0145 C   0  0  0  0  0  0  0  0  0  0  0  0
   -5.1974    2.3274    0.0814 C   0  0  0  0  0  0  0  0  0  0  0  0
    3.5452    0.1662    0.0716 C   0  0  0  0  0  0  0  0  0  0  0  0
    5.9516    0.2945    0.0228 C   0  0  0  0  0  0  0  0  0  0  0  0
    4.8980   -1.8182    0.4815 C   0  0  0  0  0  0  0  0  0  0  0  0
    7.2424   -0.4546   -0.3753 C   0  0  0  0  0  0  0  0  0  0  0  0
    6.2058   -2.5339    0.0675 C   0  0  0  0  0  0  0  0  0  0  0  0
  2  1  1  0
  3  1  1  0
  4 17  1  0
  5  1  2  0
  6  2  2  0
  7  2  1  0
  8 20  1  0
  9  3  1  0
 10 15  2  0
 11 10  1  0
 12  9  2  0
 13  9  1  0
 14  7  1  0
 15 12  1  0
 16 13  2  0
 17 14  1  0
 18  4  1  0
 19  4  1  0
 20 18  1  0
 21 19  1  0
 10 16  1  0
  8 21  1  0
M  END
>  <Name>  (86) 
Molecule

>  <IDNUMBER>  (86) 
BAS 07578822

>  <Num_H_Acceptors_Lipinski>  (86) 
6

>  <Num_H_Donors_Lipinski>  (86) 
2

>  <Molecular_Weight>  (86) 
311.76402

>  <ALogP>  (86) 
0.795

>  <Num_RotatableBonds>  (86) 
5

>  <Molecular_PolarSurfaceArea>  (86) 
70.67

>  <Num_H_Acceptors>  (86) 
4

>  <Num_H_Donors>  (86) 
2

>  <ADMET_Solubility>  (86) 
-2.024

>  <ADMET_Solubility_Level>  (86) 
3

>  <ADMET_Unknown_AlogP98>  (86) 
0

>  <ADMET_BBB>  (86) 
-1.056

>  <ADMET_BBB_Level>  (86) 
3

>  <ADMET_EXT_CYP2D6>  (86) 
-2.67449531118828

>  <ADMET_EXT_CYP2D6#Prediction>  (86) 
false

>  <ADMET_EXT_CYP2D6_Applicability>  (86) 
All properties and OPS components are within expected ranges.

>  <ADMET_EXT_CYP2D6_Applicability#MD>  (86) 
9.75207985134944

>  <ADMET_EXT_CYP2D6_Applicability#MDpvalue>  (86) 
0.16523626536169

>  <ADMET_EXT_Hepatotoxic>  (86) 
-4.68083967862677

>  <ADMET_EXT_Hepatotoxic#Prediction>  (86) 
false

>  <ADMET_EXT_Hepatotoxic_Applicability>  (86) 
OPS PC5 out of range. Value: 7.2248. Training min, max, SD, explained variance: -4.7382, 7.1496, 1.959, 0.0479.

>  <ADMET_EXT_Hepatotoxic_Applicability#MD>  (86) 
11.8423570560679

>  <ADMET_EXT_Hepatotoxic_Applicability#MDpvalue>  (86) 
0.000304913659286407

>  <ADMET_Absorption_Level>  (86) 
0

>  <ADMET_EXT_PPB>  (86) 
-6.30818682624857

>  <ADMET_EXT_PPB#Prediction>  (86) 
false

>  <ADMET_EXT_PPB_Applicability>  (86) 
All properties and OPS components are within expected ranges.

>  <ADMET_EXT_PPB_Applicability#MD>  (86) 
13.7655938839015

>  <ADMET_EXT_PPB_Applicability#MDpvalue>  (86) 
0.000293259111528165

>  <ADMET_AlogP98>  (86) 
0.795

>  <ADMET_PSA_2D>  (86) 
72.504

$$$$
Molecule
     RDKit          3D

 17 18  0  0  0  0  0  0  0  0999 V2000
    1.5962   -1.1007    0.0722 N   0  0  0  0  0  0  0  0  0  0  0  0
    0.3014   -1.7294   -0.0483 C   0  0  0  0  0  0  0  0  0  0  0  0
    4.0743   -1.2153    0.0612 C   0  0  0  0  0  0  0  0  0  0  0  0
    2.7581   -1.9663   -0.0001 C   0  0  0  0  0  0  0  0  0  0  0  0
    4.1442    0.0989   -0.1407 N   0  0  0  0  0  0  0  0  0  0  0  0
   -1.0608   -0.9955   -0.0124 C   0  0  0  0  0  0  0  0  0  0  0  0
    0.2799   -2.9509   -0.2195 O   0  0  0  0  0  0  0  0  0  0  0  0
    5.1167   -1.8455    0.2761 O   0  0  0  0  0  0  0  0  0  0  0  0
   -0.9923    0.4362    0.0096 O   0  0  0  0  0  0  0  0  0  0  0  0
    1.7693    0.3104    0.3234 C   0  0  0  0  0  0  0  0  0  0  0  0
    2.9792    0.8684   -0.4271 C   0  0  0  0  0  0  0  0  0  0  0  0
   -2.2592    1.0314    0.0145 C   0  0  0  0  0  0  0  0  0  0  0  0
   -2.3592    2.4921    0.0329 C   0  0  0  0  0  0  0  0  0  0  0  0
   -3.3710    0.2910    0.0004 C   0  0  0  0  0  0  0  0  0  0  0  0
   -3.5520    3.0826    0.0354 C   0  0  0  0  0  0  0  0  0  0  0  0
   -4.6842    0.9415    0.0038 C   0  0  0  0  0  0  0  0  0  0  0  0
   -4.7702    2.2705    0.0203 C   0  0  0  0  0  0  0  0  0  0  0  0
  2  1  1  0
  3  4  1  0
  4  1  1  0
  5 11  1  0
  6  2  1  0
  7  2  2  0
  8  3  2  0
  9  6  1  0
 10  1  1  0
 11 10  1  0
 12  9  1  0
 13 12  2  0
 14 12  1  0
 15 13  1  0
 16 14  2  0
 17 16  1  0
  5  3  1  0
 17 15  2  0
M  END
>  <Name>  (87) 
Molecule

>  <IDNUMBER>  (87) 
BAS 07770412

>  <Num_H_Acceptors_Lipinski>  (87) 
5

>  <Num_H_Donors_Lipinski>  (87) 
1

>  <Molecular_Weight>  (87) 
234.25116

>  <ALogP>  (87) 
-0.043

>  <Num_RotatableBonds>  (87) 
3

>  <Molecular_PolarSurfaceArea>  (87) 
58.64

>  <Num_H_Acceptors>  (87) 
3

>  <Num_H_Donors>  (87) 
1

>  <ADMET_Solubility>  (87) 
-1.078

>  <ADMET_Solubility_Level>  (87) 
4

>  <ADMET_Unknown_AlogP98>  (87) 
0

>  <ADMET_BBB>  (87) 
-1.112

>  <ADMET_BBB_Level>  (87) 
3

>  <ADMET_EXT_CYP2D6>  (87) 
-9.29296399818307

>  <ADMET_EXT_CYP2D6#Prediction>  (87) 
false

>  <ADMET_EXT_CYP2D6_Applicability>  (87) 
All properties and OPS components are within expected ranges.

>  <ADMET_EXT_CYP2D6_Applicability#MD>  (87) 
11.782395236085

>  <ADMET_EXT_CYP2D6_Applicability#MDpvalue>  (87) 
0.0046858586252191

>  <ADMET_EXT_Hepatotoxic>  (87) 
-5.15838517278213

>  <ADMET_EXT_Hepatotoxic#Prediction>  (87) 
false

>  <ADMET_EXT_Hepatotoxic_Applicability>  (87) 
All properties and OPS components are within expected ranges.

>  <ADMET_EXT_Hepatotoxic_Applicability#MD>  (87) 
11.4054818366131

>  <ADMET_EXT_Hepatotoxic_Applicability#MDpvalue>  (87) 
0.00157761590492623

>  <ADMET_Absorption_Level>  (87) 
0

>  <ADMET_EXT_PPB>  (87) 
-5.54608296603927

>  <ADMET_EXT_PPB#Prediction>  (87) 
false

>  <ADMET_EXT_PPB_Applicability>  (87) 
All properties and OPS components are within expected ranges.

>  <ADMET_EXT_PPB_Applicability#MD>  (87) 
11.4389783558405

>  <ADMET_EXT_PPB_Applicability#MDpvalue>  (87) 
0.273586016853334

>  <ADMET_AlogP98>  (87) 
-0.043

>  <ADMET_PSA_2D>  (87) 
59.694

$$$$
Molecule
     RDKit          3D

 19 20  0  0  0  0  0  0  0  0999 V2000
    2.8753   -1.1745    0.0002 C   0  0  0  0  0  0  0  0  0  0  0  0
    1.7025   -1.8109   -0.0002 C   0  0  0  0  0  0  0  0  0  0  0  0
    2.8693    0.2795    0.0005 C   0  0  0  0  0  0  0  0  0  0  0  0
    0.5048   -1.0715   -0.0002 N   0  0  0  0  0  0  0  0  0  0  0  0
    4.1022   -1.8759    0.0002 N   0  0  0  0  0  0  0  0  0  0  0  0
    1.7092    0.9213    0.0005 N   0  0  0  0  0  0  0  0  0  0  0  0
    0.5067    0.2039    0.0001 C   0  0  0  0  0  0  0  0  0  0  0  0
   -0.7604    0.9315    0.0001 C   0  0  0  0  0  0  0  0  0  0  0  0
    4.1294   -3.2001   -0.0001 O   0  0  0  0  0  0  0  0  0  0  0  0
    3.9291    0.9152    0.0008 O   0  0  0  0  0  0  0  0  0  0  0  0
    5.1156   -1.2804    0.0006 O   0  0  0  0  0  0  0  0  0  0  0  0
   -1.9161    0.2710   -0.0001 C   0  0  0  0  0  0  0  0  0  0  0  0
    1.6434   -3.2009   -0.0005 O   0  0  0  0  0  0  0  0  0  0  0  0
   -3.1788    1.0129   -0.0001 C   0  0  0  0  0  0  0  0  0  0  0  0
   -3.1690    2.3456    0.0000 C   0  0  0  0  0  0  0  0  0  0  0  0
   -4.4537    0.2907   -0.0003 C   0  0  0  0  0  0  0  0  0  0  0  0
   -4.4316    3.0887    0.0000 C   0  0  0  0  0  0  0  0  0  0  0  0
   -5.6020    0.9664   -0.0002 C   0  0  0  0  0  0  0  0  0  0  0  0
   -5.5905    2.4320   -0.0001 C   0  0  0  0  0  0  0  0  0  0  0  0
  2  1  2  0
  3  1  1  0
  4  2  1  0
  5  1  1  0
  6  3  1  0
  7  4  2  0
  8  7  1  0
  9  5  1  0
 10  3  2  0
 11  5  2  0
 12  8  2  0
 13  2  1  0
 14 12  1  0
 15 14  2  0
 16 14  1  0
 17 15  1  0
 18 16  2  0
 19 18  1  0
  6  7  1  0
 19 17  2  0
M  CHG  2   5   1   9  -1
M  END
>  <Name>  (88) 
Molecule

>  <IDNUMBER>  (88) 
BAS 08854135

>  <Num_H_Acceptors_Lipinski>  (88) 
7

>  <Num_H_Donors_Lipinski>  (88) 
2

>  <Molecular_Weight>  (88) 
259.21756

>  <ALogP>  (88) 
1.566

>  <Num_RotatableBonds>  (88) 
3

>  <Molecular_PolarSurfaceArea>  (88) 
107.51

>  <Num_H_Acceptors>  (88) 
5

>  <Num_H_Donors>  (88) 
2

>  <ADMET_Solubility>  (88) 
-2.698

>  <ADMET_Solubility_Level>  (88) 
3

>  <ADMET_Unknown_AlogP98>  (88) 
0

>  <ADMET_BBB>  (88) 
-1.332

>  <ADMET_BBB_Level>  (88) 
3

>  <ADMET_EXT_CYP2D6>  (88) 
-8.30676424703322

>  <ADMET_EXT_CYP2D6#Prediction>  (88) 
false

>  <ADMET_EXT_CYP2D6_Applicability>  (88) 
All properties and OPS components are within expected ranges.
Unknown FCFP_2 feature: -620694749: [*]C(=C(C(=[*])[*])[N+](=[*])[*])[*]
Unknown FCFP_2 feature: -1305894501: [*]\C=C(\O)/N=[*]

>  <ADMET_EXT_CYP2D6_Applicability#MD>  (88) 
14.040949564134

>  <ADMET_EXT_CYP2D6_Applicability#MDpvalue>  (88) 
2.38133354093708e-05

>  <ADMET_EXT_Hepatotoxic>  (88) 
-4.35633316869331

>  <ADMET_EXT_Hepatotoxic#Prediction>  (88) 
false

>  <ADMET_EXT_Hepatotoxic_Applicability>  (88) 
All properties and OPS components are within expected ranges.
Unknown FCFP_2 feature: -620694749: [*]C(=C(C(=[*])[*])[N+](=[*])[*])[*]
Unknown FCFP_2 feature: -1305894501: [*]\C=C(\O)/N=[*]

>  <ADMET_EXT_Hepatotoxic_Applicability#MD>  (88) 
12.3461305211673

>  <ADMET_EXT_Hepatotoxic_Applicability#MDpvalue>  (88) 
3.73498513238046e-05

>  <ADMET_Absorption_Level>  (88) 
0

>  <ADMET_EXT_PPB>  (88) 
-3.22351759672946

>  <ADMET_EXT_PPB#Prediction>  (88) 
false

>  <ADMET_EXT_PPB_Applicability>  (88) 
All properties and OPS components are within expected ranges.
Unknown FCFP_2 feature: -620694749: [*]C(=C(C(=[*])[*])[N+](=[*])[*])[*]

>  <ADMET_EXT_PPB_Applicability#MD>  (88) 
14.506718321798

>  <ADMET_EXT_PPB_Applicability#MDpvalue>  (88) 
9.16582216721466e-06

>  <ADMET_AlogP98>  (88) 
1.566

>  <ADMET_PSA_2D>  (88) 
105.072

$$$$
Molecule
     RDKit          3D

 25 26  0  0  0  0  0  0  0  0999 V2000
   -2.3117    0.1030   -0.7434 S   0  0  0  0  0  0  0  0  0  0  0  0
   -2.5485    1.8034   -0.2630 C   0  0  0  0  0  0  0  0  0  0  0  0
   -2.0523   -0.9041    0.6857 N   0  0  0  0  0  0  0  0  0  0  0  0
   -1.1700   -2.0652    0.4020 C   0  0  0  0  0  0  0  0  0  0  0  0
    0.2161   -1.4761    0.3158 C   0  0  0  0  0  0  0  0  0  0  0  0
   -3.5116   -0.4254   -1.5077 O   0  0  0  0  0  0  0  0  0  0  0  0
   -1.0821    0.0623   -1.6296 O   0  0  0  0  0  0  0  0  0  0  0  0
   -1.4701    2.5492   -0.0126 C   0  0  0  0  0  0  0  0  0  0  0  0
   -3.8871    2.3973   -0.1569 C   0  0  0  0  0  0  0  0  0  0  0  0
    1.2996   -2.1707   -0.0116 N   0  0  0  0  0  0  0  0  0  0  0  0
    3.6503   -3.5553   -0.0412 N   0  0  0  0  0  0  0  0  0  0  0  0
    0.3565   -0.2835    0.5882 O   0  0  0  0  0  0  0  0  0  0  0  0
   -1.6189    3.9566    0.3665 C   0  0  0  0  0  0  0  0  0  0  0  0
    3.7552   -2.2862   -0.0376 C   0  0  0  0  0  0  0  0  0  0  0  0
   -4.0160    3.6825    0.1833 C   0  0  0  0  0  0  0  0  0  0  0  0
    2.5348   -1.4203   -0.0401 C   0  0  0  0  0  0  0  0  0  0  0  0
   -2.8305    4.4952    0.4602 C   0  0  0  0  0  0  0  0  0  0  0  0
   -0.1983    1.9795   -0.1317 O   0  0  0  0  0  0  0  0  0  0  0  0
   -3.3603   -1.3261    1.2114 C   0  0  0  0  0  0  0  0  0  0  0  0
    4.7946   -4.3805   -0.0335 C   0  0  0  0  0  0  0  0  0  0  0  0
   -5.3770    4.3038    0.2852 C   0  0  0  0  0  0  0  0  0  0  0  0
    5.0761   -1.6479   -0.0228 C   0  0  0  0  0  0  0  0  0  0  0  0
    0.8343    2.9285    0.1642 C   0  0  0  0  0  0  0  0  0  0  0  0
    6.0173   -3.8499   -0.0195 C   0  0  0  0  0  0  0  0  0  0  0  0
    6.1679   -2.4036   -0.0134 C   0  0  0  0  0  0  0  0  0  0  0  0
  2  1  1  0
  3  1  1  0
  4  3  1  0
  5  4  1  0
  6  1  2  0
  7  1  2  0
  8  2  2  0
  9  2  1  0
 10  5  1  0
 11 14  2  0
 12  5  2  0
 13  8  1  0
 14 16  1  0
 15  9  2  0
 16 10  1  0
 17 15  1  0
 18  8  1  0
 19  3  1  0
 20 11  1  0
 21 15  1  0
 22 14  1  0
 23 18  1  0
 24 20  2  0
 25 22  2  0
 17 13  2  0
 24 25  1  0
M  END
>  <Name>  (89) 
Molecule

>  <IDNUMBER>  (89) 
BAS 09626069

>  <Num_H_Acceptors_Lipinski>  (89) 
7

>  <Num_H_Donors_Lipinski>  (89) 
1

>  <Molecular_Weight>  (89) 
363.43134

>  <ALogP>  (89) 
1.124

>  <Num_RotatableBonds>  (89) 
7

>  <Molecular_PolarSurfaceArea>  (89) 
96.98

>  <Num_H_Acceptors>  (89) 
5

>  <Num_H_Donors>  (89) 
1

>  <ADMET_Solubility>  (89) 
-2.395

>  <ADMET_Solubility_Level>  (89) 
3

>  <ADMET_Unknown_AlogP98>  (89) 
0

>  <ADMET_BBB>  (89) 
-1.203

>  <ADMET_BBB_Level>  (89) 
3

>  <ADMET_EXT_CYP2D6>  (89) 
-13.9845279216798

>  <ADMET_EXT_CYP2D6#Prediction>  (89) 
false

>  <ADMET_EXT_CYP2D6_Applicability>  (89) 
OPS PC6 out of range. Value: 4.2589. Training min, max, SD, explained variance: -5.674, 3.9834, 1.993, 0.0519.

>  <ADMET_EXT_CYP2D6_Applicability#MD>  (89) 
13.6964487729149

>  <ADMET_EXT_CYP2D6_Applicability#MDpvalue>  (89) 
5.62650287276564e-05

>  <ADMET_EXT_Hepatotoxic>  (89) 
-5.53718761985573

>  <ADMET_EXT_Hepatotoxic#Prediction>  (89) 
false

>  <ADMET_EXT_Hepatotoxic_Applicability>  (89) 
All properties and OPS components are within expected ranges.

>  <ADMET_EXT_Hepatotoxic_Applicability#MD>  (89) 
11.5180271152982

>  <ADMET_EXT_Hepatotoxic_Applicability#MDpvalue>  (89) 
0.00105010400965032

>  <ADMET_Absorption_Level>  (89) 
0

>  <ADMET_EXT_PPB>  (89) 
2.4939480174395

>  <ADMET_EXT_PPB#Prediction>  (89) 
true

>  <ADMET_EXT_PPB_Applicability>  (89) 
All properties and OPS components are within expected ranges.

>  <ADMET_EXT_PPB_Applicability#MD>  (89) 
11.3565905407117

>  <ADMET_EXT_PPB_Applicability#MDpvalue>  (89) 
0.309900654522282

>  <ADMET_AlogP98>  (89) 
1.124

>  <ADMET_PSA_2D>  (89) 
88.256

$$$$
Molecule
     RDKit          3D

 20 21  0  0  0  0  0  0  0  0999 V2000
   -0.2719   -0.3195   -0.7065 S   0  0  0  0  0  0  0  0  0  0  0  0
   -1.6036   -1.3992   -0.2300 C   0  0  0  0  0  0  0  0  0  0  0  0
    1.3736    0.0775   -0.3221 N   0  0  0  0  0  0  0  0  0  0  0  0
   -0.4899    0.2330    0.6909 O   0  0  0  0  0  0  0  0  0  0  0  0
    0.3837   -1.6506   -1.0208 O   0  0  0  0  0  0  0  0  0  0  0  0
   -2.7824   -0.8374    0.0302 C   0  0  0  0  0  0  0  0  0  0  0  0
   -1.4524   -2.8600   -0.1555 C   0  0  0  0  0  0  0  0  0  0  0  0
    3.7392    1.4911    0.0192 N   0  0  0  0  0  0  0  0  0  0  0  0
    1.3375    1.5496   -0.1797 C   0  0  0  0  0  0  0  0  0  0  0  0
   -3.9335   -1.6703    0.3949 C   0  0  0  0  0  0  0  0  0  0  0  0
    2.6776    2.1920   -0.0357 C   0  0  0  0  0  0  0  0  0  0  0  0
   -2.5055   -3.6162    0.1682 C   0  0  0  0  0  0  0  0  0  0  0  0
   -3.8013   -2.9927    0.4583 C   0  0  0  0  0  0  0  0  0  0  0  0
   -2.9025    0.5592   -0.0714 O   0  0  0  0  0  0  0  0  0  0  0  0
    5.0059    2.1017    0.1407 C   0  0  0  0  0  0  0  0  0  0  0  0
    2.7455    3.6552    0.0220 C   0  0  0  0  0  0  0  0  0  0  0  0
   -2.3712   -5.1094    0.2359 C   0  0  0  0  0  0  0  0  0  0  0  0
   -4.2332    0.9944    0.2197 C   0  0  0  0  0  0  0  0  0  0  0  0
    5.1209    3.4289    0.1941 C   0  0  0  0  0  0  0  0  0  0  0  0
    3.9254    4.2526    0.1309 C   0  0  0  0  0  0  0  0  0  0  0  0
  2  1  1  0
  3  1  1  0
  4  1  2  0
  5  1  2  0
  6  2  2  0
  7  2  1  0
  8 11  2  0
  9  3  1  0
 10  6  1  0
 11  9  1  0
 12  7  2  0
 13 12  1  0
 14  6  1  0
 15  8  1  0
 16 11  1  0
 17 12  1  0
 18 14  1  0
 19 15  2  0
 20 16  2  0
 13 10  2  0
 19 20  1  0
M  END
>  <Name>  (90) 
Molecule

>  <IDNUMBER>  (90) 
BAS 09664047

>  <Num_H_Acceptors_Lipinski>  (90) 
5

>  <Num_H_Donors_Lipinski>  (90) 
1

>  <Molecular_Weight>  (90) 
292.35344

>  <ALogP>  (90) 
1.858

>  <Num_RotatableBonds>  (90) 
5

>  <Molecular_PolarSurfaceArea>  (90) 
76.67

>  <Num_H_Acceptors>  (90) 
4

>  <Num_H_Donors>  (90) 
1

>  <ADMET_Solubility>  (90) 
-3.089

>  <ADMET_Solubility_Level>  (90) 
3

>  <ADMET_Unknown_AlogP98>  (90) 
0

>  <ADMET_BBB>  (90) 
-0.649

>  <ADMET_BBB_Level>  (90) 
3

>  <ADMET_EXT_CYP2D6>  (90) 
-9.87400936383006

>  <ADMET_EXT_CYP2D6#Prediction>  (90) 
false

>  <ADMET_EXT_CYP2D6_Applicability>  (90) 
All properties and OPS components are within expected ranges.

>  <ADMET_EXT_CYP2D6_Applicability#MD>  (90) 
14.9217494109924

>  <ADMET_EXT_CYP2D6_Applicability#MDpvalue>  (90) 
2.50075312549716e-06

>  <ADMET_EXT_Hepatotoxic>  (90) 
-5.87813969103634

>  <ADMET_EXT_Hepatotoxic#Prediction>  (90) 
false

>  <ADMET_EXT_Hepatotoxic_Applicability>  (90) 
All properties and OPS components are within expected ranges.

>  <ADMET_EXT_Hepatotoxic_Applicability#MD>  (90) 
11.0882309171135

>  <ADMET_EXT_Hepatotoxic_Applicability#MDpvalue>  (90) 
0.00466364971715266

>  <ADMET_Absorption_Level>  (90) 
0

>  <ADMET_EXT_PPB>  (90) 
2.82958529354423

>  <ADMET_EXT_PPB#Prediction>  (90) 
true

>  <ADMET_EXT_PPB_Applicability>  (90) 
All properties and OPS components are within expected ranges.

>  <ADMET_EXT_PPB_Applicability#MD>  (90) 
9.2632187413437

>  <ADMET_EXT_PPB_Applicability#MDpvalue>  (90) 
0.99039647404778

>  <ADMET_AlogP98>  (90) 
1.858

>  <ADMET_PSA_2D>  (90) 
67.602

$$$$
Molecule
     RDKit          3D

 30 32  0  0  0  0  0  0  0  0999 V2000
    0.3115    1.0448    0.0157 C   0  0  0  0  0  0  0  0  0  0  0  0
    1.3566   -1.1317    0.0856 N   0  0  0  0  0  0  0  0  0  0  0  0
    1.6345    1.1911    0.0704 C   0  0  0  0  0  0  0  0  0  0  0  0
    2.3091   -0.0911    0.1370 C   0  0  0  0  0  0  0  0  0  0  0  0
    0.0294   -0.5182    0.0529 C   0  0  2  0  0  0  0  0  0  0  0  0
   -0.5863    2.3037   -0.0507 C   0  0  0  0  0  0  0  0  0  0  0  0
   -2.0646    2.4326    0.1808 C   0  0  0  0  0  0  0  0  0  0  0  0
   -1.2425   -1.3700   -0.1784 C   0  0  0  0  0  0  0  0  0  0  0  0
    3.5344   -0.2086    0.1720 O   0  0  0  0  0  0  0  0  0  0  0  0
   -1.3271   -2.6356    0.4564 N   0  0  0  0  0  0  0  0  0  0  0  0
   -0.0032    3.3660   -0.3063 O   0  0  0  0  0  0  0  0  0  0  0  0
   -2.6573    3.5688   -0.1944 C   0  0  0  0  0  0  0  0  0  0  0  0
    2.3021    2.4132    0.0748 O   0  0  0  0  0  0  0  0  0  0  0  0
    1.5830   -2.6081    0.0221 C   0  0  0  0  0  0  0  0  0  0  0  0
   -4.1046    3.7629   -0.0084 C   0  0  0  0  0  0  0  0  0  0  0  0
    2.9384   -3.1956    0.5400 C   0  0  0  0  0  0  0  0  0  0  0  0
   -2.8702    1.4037    0.8196 C   0  0  0  0  0  0  0  0  0  0  0  0
   -4.7135    4.9578   -0.4419 O   0  0  0  0  0  0  0  0  0  0  0  0
    5.3166   -3.4920    0.2204 O   0  0  0  0  0  0  0  0  0  0  0  0
   -4.1799    1.5687    0.9936 C   0  0  0  0  0  0  0  0  0  0  0  0
   -2.3466   -3.3891    0.3456 C   0  0  0  0  0  0  0  0  0  0  0  0
   -2.2535   -0.9615   -0.9429 C   0  0  0  0  0  0  0  0  0  0  0  0
    4.1457   -2.9319   -0.3884 C   0  0  0  0  0  0  0  0  0  0  0  0
   -4.8282    2.7965    0.5550 C   0  0  0  0  0  0  0  0  0  0  0  0
    6.4985   -3.0170   -0.4355 C   0  0  0  0  0  0  0  0  0  0  0  0
   -6.1324    4.9454   -0.1949 C   0  0  0  0  0  0  0  0  0  0  0  0
    7.7319   -3.6809    0.2028 C   0  0  0  0  0  0  0  0  0  0  0  0
    6.6080   -1.4853   -0.2540 C   0  0  0  0  0  0  0  0  0  0  0  0
   -3.4844   -2.9759   -0.4609 C   0  0  0  0  0  0  0  0  0  0  0  0
   -3.4381   -1.8069   -1.0905 C   0  0  0  0  0  0  0  0  0  0  0  0
  2  5  1  0
  3  1  2  0
  4  3  1  0
  5  1  1  0
  6  1  1  0
  7  6  1  0
  5  8  1  6
  9  4  2  0
 10  8  2  0
 11  6  2  0
 12  7  2  0
 13  3  1  0
 14  2  1  0
 15 12  1  0
 16 14  1  0
 17  7  1  0
 18 15  1  0
 19 23  1  0
 20 17  2  0
 21 10  1  0
 22  8  1  0
 23 16  1  0
 24 20  1  0
 25 19  1  0
 26 18  1  0
 27 25  1  0
 28 25  1  0
 29 21  2  0
 30 22  2  0
  4  2  1  0
 29 30  1  0
 24 15  2  0
M  END
>  <Name>  (91) 
Molecule

>  <IDNUMBER>  (91) 
BAS 09965845

>  <Num_H_Acceptors_Lipinski>  (91) 
7

>  <Num_H_Donors_Lipinski>  (91) 
1

>  <Molecular_Weight>  (91) 
410.46294

>  <ALogP>  (91) 
2.198

>  <Num_RotatableBonds>  (91) 
9

>  <Molecular_PolarSurfaceArea>  (91) 
88.96

>  <Num_H_Acceptors>  (91) 
6

>  <Num_H_Donors>  (91) 
1

>  <ADMET_Solubility>  (91) 
-2.899

>  <ADMET_Solubility_Level>  (91) 
3

>  <ADMET_Unknown_AlogP98>  (91) 
0

>  <ADMET_BBB>  (91) 
-0.865

>  <ADMET_BBB_Level>  (91) 
3

>  <ADMET_EXT_CYP2D6>  (91) 
-8.46614752492433

>  <ADMET_EXT_CYP2D6#Prediction>  (91) 
false

>  <ADMET_EXT_CYP2D6_Applicability>  (91) 
All properties and OPS components are within expected ranges.

>  <ADMET_EXT_CYP2D6_Applicability#MD>  (91) 
16.1641305165391

>  <ADMET_EXT_CYP2D6_Applicability#MDpvalue>  (91) 
9.53125187221256e-08

>  <ADMET_EXT_Hepatotoxic>  (91) 
-6.29267353413516

>  <ADMET_EXT_Hepatotoxic#Prediction>  (91) 
false

>  <ADMET_EXT_Hepatotoxic_Applicability>  (91) 
All properties and OPS components are within expected ranges.

>  <ADMET_EXT_Hepatotoxic_Applicability#MD>  (91) 
13.0910575523265

>  <ADMET_EXT_Hepatotoxic_Applicability#MDpvalue>  (91) 
1.15972122959431e-06

>  <ADMET_Absorption_Level>  (91) 
0

>  <ADMET_EXT_PPB>  (91) 
-3.56086400783972

>  <ADMET_EXT_PPB#Prediction>  (91) 
false

>  <ADMET_EXT_PPB_Applicability>  (91) 
All properties and OPS components are within expected ranges.

>  <ADMET_EXT_PPB_Applicability#MD>  (91) 
14.7063106421837

>  <ADMET_EXT_PPB_Applicability#MDpvalue>  (91) 
3.27215351839597e-06

>  <ADMET_AlogP98>  (91) 
2.198

>  <ADMET_PSA_2D>  (91) 
87.89

$$$$
Molecule
     RDKit          3D

 24 26  0  0  0  0  0  0  0  0999 V2000
   -2.5907   -0.7638    0.0158 C   0  0  0  0  0  0  0  0  0  0  0  0
   -2.6275    0.5462    0.0108 C   0  0  0  0  0  0  0  0  0  0  0  0
   -1.2617   -1.1978    0.0088 N   0  0  0  0  0  0  0  0  0  0  0  0
   -3.7435   -1.5398    0.0203 N   0  0  0  0  0  0  0  0  0  0  0  0
   -5.0598    0.5372    0.0128 N   0  0  0  0  0  0  0  0  0  0  0  0
   -4.9998   -0.8847    0.0174 C   0  0  0  0  0  0  0  0  0  0  0  0
   -0.5409   -0.1363   -0.0009 C   0  0  0  0  0  0  0  0  0  0  0  0
   -3.8679    1.2799    0.0114 C   0  0  0  0  0  0  0  0  0  0  0  0
   -1.3437    1.0326    0.0017 N   0  0  0  0  0  0  0  0  0  0  0  0
    0.8589   -0.1315   -0.0263 N   0  0  0  0  0  0  0  0  0  0  0  0
    5.1787   -0.1222   -0.1098 C   0  0  0  0  0  0  0  0  0  0  0  0
   -6.0434   -1.5471    0.0182 O   0  0  0  0  0  0  0  0  0  0  0  0
   -3.8822    2.5159    0.0070 O   0  0  0  0  0  0  0  0  0  0  0  0
    1.5430    1.1515   -0.1840 C   0  0  0  0  0  0  0  0  0  0  0  0
    1.5541   -1.4093   -0.1427 C   0  0  0  0  0  0  0  0  0  0  0  0
    3.6982   -0.1258   -0.3736 C   0  0  0  0  0  0  0  0  0  0  0  0
    5.7728   -1.1910    0.0729 O   0  0  0  0  0  0  0  0  0  0  0  0
   -3.6642   -2.9713    0.0229 C   0  0  0  0  0  0  0  0  0  0  0  0
   -6.3284    1.2064    0.0089 C   0  0  0  0  0  0  0  0  0  0  0  0
    3.0379    1.1218    0.2005 C   0  0  0  0  0  0  0  0  0  0  0  0
    3.0444   -1.3518    0.2488 C   0  0  0  0  0  0  0  0  0  0  0  0
    5.8867    1.0789   -0.0997 O   0  0  0  0  0  0  0  0  0  0  0  0
    7.2742    0.8154    0.1439 C   0  0  0  0  0  0  0  0  0  0  0  0
    8.0653    2.1358    0.1141 C   0  0  0  0  0  0  0  0  0  0  0  0
  2  1  2  0
  3  1  1  0
  4  1  1  0
  5  6  1  0
  6  4  1  0
  7  3  2  0
  8  2  1  0
  9  2  1  0
 10  7  1  0
 11 16  1  0
 12  6  2  0
 13  8  2  0
 14 10  1  0
 15 10  1  0
 16 20  1  0
 17 11  2  0
 18  4  1  0
 19  5  1  0
 20 14  1  0
 21 15  1  0
 22 11  1  0
 23 22  1  0
 24 23  1  0
  5  8  1  0
  7  9  1  0
 16 21  1  0
M  END
>  <Name>  (92) 
Molecule

>  <IDNUMBER>  (92) 
BAS 11146627

>  <Num_H_Acceptors_Lipinski>  (92) 
9

>  <Num_H_Donors_Lipinski>  (92) 
1

>  <Molecular_Weight>  (92) 
335.35834

>  <ALogP>  (92) 
1.074

>  <Num_RotatableBonds>  (92) 
4

>  <Molecular_PolarSurfaceArea>  (92) 
98.84

>  <Num_H_Acceptors>  (92) 
6

>  <Num_H_Donors>  (92) 
1

>  <ADMET_Solubility>  (92) 
-3.308

>  <ADMET_Solubility_Level>  (92) 
3

>  <ADMET_Unknown_AlogP98>  (92) 
0

>  <ADMET_BBB>  (92) 
-1.198

>  <ADMET_BBB_Level>  (92) 
3

>  <ADMET_EXT_CYP2D6>  (92) 
-10.2270647480698

>  <ADMET_EXT_CYP2D6#Prediction>  (92) 
false

>  <ADMET_EXT_CYP2D6_Applicability>  (92) 
All properties and OPS components are within expected ranges.
Unknown FCFP_2 feature: -1410020105: [*]S[c]1:[nH]:[*]:[*]:n:1

>  <ADMET_EXT_CYP2D6_Applicability#MD>  (92) 
16.3508959706469

>  <ADMET_EXT_CYP2D6_Applicability#MDpvalue>  (92) 
5.80156283826914e-08

>  <ADMET_EXT_Hepatotoxic>  (92) 
-12.9096600317636

>  <ADMET_EXT_Hepatotoxic#Prediction>  (92) 
false

>  <ADMET_EXT_Hepatotoxic_Applicability>  (92) 
All properties and OPS components are within expected ranges.
Unknown FCFP_2 feature: -1410020105: [*]S[c]1:[nH]:[*]:[*]:n:1

>  <ADMET_EXT_Hepatotoxic_Applicability#MD>  (92) 
11.1730950830193

>  <ADMET_EXT_Hepatotoxic_Applicability#MDpvalue>  (92) 
0.0035225484334487

>  <ADMET_Absorption_Level>  (92) 
0

>  <ADMET_EXT_PPB>  (92) 
-8.58103486310726

>  <ADMET_EXT_PPB#Prediction>  (92) 
false

>  <ADMET_EXT_PPB_Applicability>  (92) 
All properties and OPS components are within expected ranges.
Unknown FCFP_2 feature: -1410020105: [*]S[c]1:[nH]:[*]:[*]:n:1

>  <ADMET_EXT_PPB_Applicability#MD>  (92) 
14.8880744985793

>  <ADMET_EXT_PPB_Applicability#MDpvalue>  (92) 
1.23753316851729e-06

>  <ADMET_AlogP98>  (92) 
1.598

>  <ADMET_PSA_2D>  (92) 
97.206

$$$$
Molecule
     RDKit          3D

 32 35  0  0  0  0  0  0  0  0999 V2000
   -4.4905    1.0403   -0.0090 N   0  0  0  0  0  0  0  0  0  0  0  0
   -2.1173   -0.3412   -0.0276 C   0  0  0  0  0  0  0  0  0  0  0  0
   -2.0640    0.9883   -0.0038 C   0  0  0  0  0  0  0  0  0  0  0  0
   -3.2979    1.7383    0.0031 C   0  0  0  0  0  0  0  0  0  0  0  0
   -3.3644   -0.9996   -0.0424 N   0  0  0  0  0  0  0  0  0  0  0  0
   -4.4680   -0.3580   -0.0326 C   0  0  0  0  0  0  0  0  0  0  0  0
   -0.9292   -1.1001   -0.0336 N   0  0  0  0  0  0  0  0  0  0  0  0
    0.3264    0.9241    0.0148 C   0  0  0  0  0  0  0  0  0  0  0  0
    0.2158   -0.5402   -0.0154 C   0  0  0  0  0  0  0  0  0  0  0  0
   -0.7771    1.6640    0.0197 C   0  0  0  0  0  0  0  0  0  0  0  0
   -5.7103    1.7267    0.0034 C   0  0  0  0  0  0  0  0  0  0  0  0
    1.6441    1.5574    0.0500 C   0  0  0  0  0  0  0  0  0  0  0  0
   -5.7278   -1.0868   -0.0439 C   0  0  0  0  0  0  0  0  0  0  0  0
   -6.8642    1.0579   -0.0061 C   0  0  0  0  0  0  0  0  0  0  0  0
    1.7222    2.9017    0.1162 N   0  0  0  0  0  0  0  0  0  0  0  0
   -6.8735   -0.4102   -0.0306 C   0  0  0  0  0  0  0  0  0  0  0  0
   -3.2884    2.9739    0.0236 O   0  0  0  0  0  0  0  0  0  0  0  0
    2.6409    0.8315    0.0398 O   0  0  0  0  0  0  0  0  0  0  0  0
    1.3778   -1.3218   -0.0184 N   0  0  0  0  0  0  0  0  0  0  0  0
    4.6883    2.0012    0.5911 O   0  0  0  0  0  0  0  0  0  0  0  0
    2.9494    3.7370    0.1764 C   0  0  0  0  0  0  0  0  0  0  0  0
    4.2866    3.0739   -0.2669 C   0  0  1  0  0  0  0  0  0  0  0  0
    2.7407   -3.3273   -0.0113 C   0  0  0  0  0  0  0  0  0  0  0  0
    4.0224   -5.3934   -0.0010 O   0  0  0  0  0  0  0  0  0  0  0  0
    1.3070   -2.7542   -0.0287 C   0  0  0  0  0  0  0  0  0  0  0  0
   -8.1627    1.8103    0.0081 C   0  0  0  0  0  0  0  0  0  0  0  0
    6.0752    1.7308    0.2266 C   0  0  0  0  0  0  0  0  0  0  0  0
    2.6898   -4.8678   -0.0154 C   0  0  0  0  0  0  0  0  0  0  0  0
    3.9715   -6.8237   -0.0034 C   0  0  0  0  0  0  0  0  0  0  0  0
    5.4684    4.0089   -0.1523 C   0  0  0  0  0  0  0  0  0  0  0  0
    5.4031   -7.3928    0.0079 C   0  0  0  0  0  0  0  0  0  0  0  0
    6.5428    3.0056   -0.5363 C   0  0  0  0  0  0  0  0  0  0  0  0
  2  5  1  0
  3  4  1  0
  4  1  1  0
  5  6  2  0
  6  1  1  0
  7  2  2  0
  8 10  1  0
  9  7  1  0
 10  3  2  0
 11  1  1  0
 12  8  1  0
 13  6  1  0
 14 11  2  0
 15 12  1  0
 16 13  2  0
 17  4  2  0
 18 12  2  0
 19  9  1  0
 20 22  1  0
 21 15  1  0
 22 21  1  1
 23 25  1  0
 24 28  1  0
 25 19  1  0
 26 14  1  0
 27 20  1  0
 28 23  1  0
 29 24  1  0
 30 22  1  0
 31 29  1  0
 32 30  1  0
  3  2  1  0
 14 16  1  0
  8  9  2  0
 27 32  1  0
M  END
>  <Name>  (93) 
Molecule

>  <IDNUMBER>  (93) 
BAS 12490285

>  <Num_H_Acceptors_Lipinski>  (93) 
9

>  <Num_H_Donors_Lipinski>  (93) 
2

>  <Molecular_Weight>  (93) 
439.50746

>  <ALogP>  (93) 
1.367

>  <Num_RotatableBonds>  (93) 
9

>  <Molecular_PolarSurfaceArea>  (93) 
105.15

>  <Num_H_Acceptors>  (93) 
7

>  <Num_H_Donors>  (93) 
2

>  <ADMET_Solubility>  (93) 
-2.941

>  <ADMET_Solubility_Level>  (93) 
3

>  <ADMET_Unknown_AlogP98>  (93) 
0

>  <ADMET_BBB>  (93) 
-1.377

>  <ADMET_BBB_Level>  (93) 
3

>  <ADMET_EXT_CYP2D6>  (93) 
-6.91026783527593

>  <ADMET_EXT_CYP2D6#Prediction>  (93) 
false

>  <ADMET_EXT_CYP2D6_Applicability>  (93) 
All properties and OPS components are within expected ranges.

>  <ADMET_EXT_CYP2D6_Applicability#MD>  (93) 
16.0164708164927

>  <ADMET_EXT_CYP2D6_Applicability#MDpvalue>  (93) 
1.41027624389948e-07

>  <ADMET_EXT_Hepatotoxic>  (93) 
-5.0076046470795

>  <ADMET_EXT_Hepatotoxic#Prediction>  (93) 
false

>  <ADMET_EXT_Hepatotoxic_Applicability>  (93) 
All properties and OPS components are within expected ranges.

>  <ADMET_EXT_Hepatotoxic_Applicability#MD>  (93) 
13.83830179642

>  <ADMET_EXT_Hepatotoxic_Applicability#MDpvalue>  (93) 
2.40195300889286e-08

>  <ADMET_Absorption_Level>  (93) 
0

>  <ADMET_EXT_PPB>  (93) 
-4.12679474674239

>  <ADMET_EXT_PPB#Prediction>  (93) 
false

>  <ADMET_EXT_PPB_Applicability>  (93) 
All properties and OPS components are within expected ranges.

>  <ADMET_EXT_PPB_Applicability#MD>  (93) 
16.0477505323807

>  <ADMET_EXT_PPB_Applicability#MDpvalue>  (93) 
1.20962615744024e-09

>  <ADMET_AlogP98>  (93) 
1.367

>  <ADMET_PSA_2D>  (93) 
104.018

$$$$
Molecule
     RDKit          3D

 23 24  0  0  0  0  0  0  0  0999 V2000
   -5.1556    0.8006   -0.4130 S   0  0  0  0  0  0  0  0  0  0  0  0
   -3.7455   -0.1085    0.1299 N   0  0  0  0  0  0  0  0  0  0  0  0
    3.5130   -1.6337   -0.0337 C   0  0  0  0  0  0  0  0  0  0  0  0
    3.5585   -0.1189   -0.0480 C   0  0  0  0  0  0  0  0  0  0  0  0
   -0.0103    0.6821    0.2309 C   0  0  0  0  0  0  0  0  0  0  0  0
   -1.2809   -0.0985    0.3973 C   0  0  1  0  0  0  0  0  0  0  0  0
    1.1637    0.0198    0.1796 N   0  0  0  0  0  0  0  0  0  0  0  0
    2.4517    0.6348    0.0522 C   0  0  0  0  0  0  0  0  0  0  0  0
   -2.5120    0.6905   -0.1075 C   0  0  0  0  0  0  0  0  0  0  0  0
   -5.7057   -0.6097   -0.3270 O   0  0  0  0  0  0  0  0  0  0  0  0
   -4.8749    1.7620    0.7272 O   0  0  0  0  0  0  0  0  0  0  0  0
   -0.0788    1.9135    0.1545 O   0  0  0  0  0  0  0  0  0  0  0  0
    3.6477   -2.0475    1.2745 F   0  0  0  0  0  0  0  0  0  0  0  0
    4.5921   -2.1307   -0.7374 F   0  0  0  0  0  0  0  0  0  0  0  0
    2.3235   -2.1287   -0.5219 F   0  0  0  0  0  0  0  0  0  0  0  0
   -6.8838    0.9293    0.1112 C   0  0  0  0  0  0  0  0  0  0  0  0
   -3.6494   -1.4161   -0.5787 C   0  0  0  0  0  0  0  0  0  0  0  0
   -1.1640   -1.4714   -0.2659 C   0  0  0  0  0  0  0  0  0  0  0  0
    4.8720    0.5250   -0.1665 C   0  0  0  0  0  0  0  0  0  0  0  0
    2.5914    2.1025    0.0342 C   0  0  0  0  0  0  0  0  0  0  0  0
   -2.4670   -2.2386   -0.0212 C   0  0  0  0  0  0  0  0  0  0  0  0
    4.9799    1.8502   -0.1782 C   0  0  0  0  0  0  0  0  0  0  0  0
    3.7868    2.6751   -0.0727 C   0  0  0  0  0  0  0  0  0  0  0  0
  2  1  1  0
  3  4  1  0
  4  8  2  0
  6  5  1  6
  6  9  1  0
  7  5  1  0
  8  7  1  0
  9  2  1  0
 10  1  2  0
 11  1  2  0
 12  5  2  0
 13  3  1  0
 14  3  1  0
 15  3  1  0
 16  1  1  0
 17  2  1  0
 18 21  1  0
 19  4  1  0
 20  8  1  0
 21 17  1  0
 22 23  1  0
 23 20  2  0
 18  6  1  0
 22 19  2  0
M  END
>  <Name>  (94) 
Molecule

>  <IDNUMBER>  (94) 
BAS 12634610

>  <Num_H_Acceptors_Lipinski>  (94) 
5

>  <Num_H_Donors_Lipinski>  (94) 
1

>  <Molecular_Weight>  (94) 
350.35659

>  <ALogP>  (94) 
1.704

>  <Num_RotatableBonds>  (94) 
4

>  <Molecular_PolarSurfaceArea>  (94) 
74.86

>  <Num_H_Acceptors>  (94) 
3

>  <Num_H_Donors>  (94) 
1

>  <ADMET_Solubility>  (94) 
-3.483

>  <ADMET_Solubility_Level>  (94) 
3

>  <ADMET_Unknown_AlogP98>  (94) 
0

>  <ADMET_BBB>  (94) 
-0.704

>  <ADMET_BBB_Level>  (94) 
3

>  <ADMET_EXT_CYP2D6>  (94) 
-8.68571009443749

>  <ADMET_EXT_CYP2D6#Prediction>  (94) 
false

>  <ADMET_EXT_CYP2D6_Applicability>  (94) 
All properties and OPS components are within expected ranges.
Unknown FCFP_2 feature: 1704082462: [*]N([*])S(=O)(=O)C

>  <ADMET_EXT_CYP2D6_Applicability#MD>  (94) 
8.97778906757945

>  <ADMET_EXT_CYP2D6_Applicability#MDpvalue>  (94) 
0.399234084225923

>  <ADMET_EXT_Hepatotoxic>  (94) 
-7.091126676016

>  <ADMET_EXT_Hepatotoxic#Prediction>  (94) 
false

>  <ADMET_EXT_Hepatotoxic_Applicability>  (94) 
All properties and OPS components are within expected ranges.
Unknown FCFP_2 feature: 1704082462: [*]N([*])S(=O)(=O)C

>  <ADMET_EXT_Hepatotoxic_Applicability#MD>  (94) 
8.18874541245668

>  <ADMET_EXT_Hepatotoxic_Applicability#MDpvalue>  (94) 
0.829372126331349

>  <ADMET_Absorption_Level>  (94) 
0

>  <ADMET_EXT_PPB>  (94) 
1.22972855580974

>  <ADMET_EXT_PPB#Prediction>  (94) 
true

>  <ADMET_EXT_PPB_Applicability>  (94) 
All properties and OPS components are within expected ranges.
Unknown FCFP_2 feature: 1704082462: [*]N([*])S(=O)(=O)C

>  <ADMET_EXT_PPB_Applicability#MD>  (94) 
11.0961704871897

>  <ADMET_EXT_PPB_Applicability#MDpvalue>  (94) 
0.436912851770647

>  <ADMET_AlogP98>  (94) 
1.704

>  <ADMET_PSA_2D>  (94) 
68.065

$$$$
Molecule
     RDKit          3D

 29 31  0  0  0  0  0  0  0  0999 V2000
    0.5417    0.6421   -0.0213 C   0  0  0  0  0  0  0  0  0  0  0  0
   -1.5807    1.9158   -0.0387 C   0  0  0  0  0  0  0  0  0  0  0  0
   -0.8894    0.7571   -0.0397 N   0  0  0  0  0  0  0  0  0  0  0  0
   -0.7429   -4.5185    0.0076 N   0  0  0  0  0  0  0  0  0  0  0  0
    0.5382   -1.9718    0.0382 N   0  0  0  0  0  0  0  0  0  0  0  0
    1.2310   -0.7075    0.0331 C   0  0  0  0  0  0  0  0  0  0  0  0
   -1.3744   -5.7687   -0.0208 C   0  0  0  0  0  0  0  0  0  0  0  0
   -3.0383    1.8671   -0.0370 C   0  0  0  0  0  0  0  0  0  0  0  0
    3.5205    2.9026   -0.0036 C   0  0  0  0  0  0  0  0  0  0  0  0
    2.7445    1.6688    0.0133 C   0  0  0  0  0  0  0  0  0  0  0  0
    1.2963    1.7391   -0.0273 C   0  0  0  0  0  0  0  0  0  0  0  0
    2.5662   -0.7406    0.0805 C   0  0  0  0  0  0  0  0  0  0  0  0
    0.6163   -4.3991   -0.4463 C   0  0  0  0  0  0  0  0  0  0  0  0
   -1.4544   -3.3627    0.4839 C   0  0  0  0  0  0  0  0  0  0  0  0
    1.3128   -3.1815    0.2157 C   0  0  0  0  0  0  0  0  0  0  0  0
   -0.8892   -2.0745   -0.1569 C   0  0  0  0  0  0  0  0  0  0  0  0
   -1.0306    3.0203   -0.0251 O   0  0  0  0  0  0  0  0  0  0  0  0
    3.3547    0.4897    0.0686 C   0  0  0  0  0  0  0  0  0  0  0  0
   -0.7574   -6.7593   -0.4279 O   0  0  0  0  0  0  0  0  0  0  0  0
    2.9364    3.9915   -0.0530 O   0  0  0  0  0  0  0  0  0  0  0  0
   -5.0864    0.6606   -0.0355 N   0  0  0  0  0  0  0  0  0  0  0  0
   -3.6779    0.7016   -0.0431 C   0  0  0  0  0  0  0  0  0  0  0  0
    4.9091    2.8581    0.0315 O   0  0  0  0  0  0  0  0  0  0  0  0
   -3.8012    3.1067   -0.0205 C   0  0  0  0  0  0  0  0  0  0  0  0
   -2.8055   -5.9095    0.4224 C   0  0  0  0  0  0  0  0  0  0  0  0
   -5.7802    1.7306   -0.0205 C   0  0  0  0  0  0  0  0  0  0  0  0
    5.4269    4.1914    0.0013 C   0  0  0  0  0  0  0  0  0  0  0  0
   -5.1283    3.0417   -0.0120 C   0  0  0  0  0  0  0  0  0  0  0  0
    6.9640    4.1481    0.0327 C   0  0  0  0  0  0  0  0  0  0  0  0
  2  3  1  0
  3  1  1  0
  4 14  1  0
  5  6  1  0
  6  1  2  0
  7  4  1  0
  8  2  1  0
  9 10  1  0
 10 11  2  0
 11  1  1  0
 12  6  1  0
 13 15  1  0
 14 16  1  0
 15  5  1  0
 16  5  1  0
 17  2  2  0
 18 10  1  0
 19  7  2  0
 20  9  2  0
 21 22  2  0
 22  8  1  0
 23  9  1  0
 24  8  2  0
 25  7  1  0
 26 21  1  0
 27 23  1  0
 28 24  1  0
 29 27  1  0
 18 12  2  0
  4 13  1  0
 26 28  2  0
M  END
>  <Name>  (95) 
Molecule

>  <IDNUMBER>  (95) 
BAS 12719960

>  <Num_H_Acceptors_Lipinski>  (95) 
8

>  <Num_H_Donors_Lipinski>  (95) 
1

>  <Molecular_Weight>  (95) 
396.43966

>  <ALogP>  (95) 
1.047

>  <Num_RotatableBonds>  (95) 
6

>  <Molecular_PolarSurfaceArea>  (95) 
91.84

>  <Num_H_Acceptors>  (95) 
6

>  <Num_H_Donors>  (95) 
1

>  <ADMET_Solubility>  (95) 
-2.399

>  <ADMET_Solubility_Level>  (95) 
3

>  <ADMET_Unknown_AlogP98>  (95) 
0

>  <ADMET_BBB>  (95) 
-1.28

>  <ADMET_BBB_Level>  (95) 
3

>  <ADMET_EXT_CYP2D6>  (95) 
-17.6014346988023

>  <ADMET_EXT_CYP2D6#Prediction>  (95) 
false

>  <ADMET_EXT_CYP2D6_Applicability>  (95) 
All properties and OPS components are within expected ranges.

>  <ADMET_EXT_CYP2D6_Applicability#MD>  (95) 
15.6475062574296

>  <ADMET_EXT_CYP2D6_Applicability#MDpvalue>  (95) 
3.74123395050812e-07

>  <ADMET_EXT_Hepatotoxic>  (95) 
-5.5653592225834

>  <ADMET_EXT_Hepatotoxic#Prediction>  (95) 
false

>  <ADMET_EXT_Hepatotoxic_Applicability>  (95) 
All properties and OPS components are within expected ranges.

>  <ADMET_EXT_Hepatotoxic_Applicability#MD>  (95) 
11.5695885573663

>  <ADMET_EXT_Hepatotoxic_Applicability#MDpvalue>  (95) 
0.000868109870941821

>  <ADMET_Absorption_Level>  (95) 
0

>  <ADMET_EXT_PPB>  (95) 
1.25275855112315

>  <ADMET_EXT_PPB#Prediction>  (95) 
true

>  <ADMET_EXT_PPB_Applicability>  (95) 
All properties and OPS components are within expected ranges.

>  <ADMET_EXT_PPB_Applicability#MD>  (95) 
16.7149399920009

>  <ADMET_EXT_PPB_Applicability#MDpvalue>  (95) 
1.32452621734827e-11

>  <ADMET_AlogP98>  (95) 
1.047

>  <ADMET_PSA_2D>  (95) 
91.608

$$$$
Molecule
     RDKit          3D

 23 24  0  0  0  0  0  0  0  0999 V2000
   -1.2135   -1.3281    0.0592 S   0  0  0  0  0  0  0  0  0  0  0  0
   -2.7429   -0.3937    0.0018 C   0  0  0  0  0  0  0  0  0  0  0  0
   -2.7730    0.9461   -0.0104 C   0  0  0  0  0  0  0  0  0  0  0  0
   -4.0616    1.6480   -0.0476 C   0  0  0  0  0  0  0  0  0  0  0  0
   -4.0064   -1.1411   -0.0242 C   0  0  0  0  0  0  0  0  0  0  0  0
   -1.2356   -2.3649   -1.0477 O   0  0  0  0  0  0  0  0  0  0  0  0
   -1.1684   -2.0744    1.3785 O   0  0  0  0  0  0  0  0  0  0  0  0
    5.1632   -0.4699   -0.2781 N   0  0  0  0  0  0  0  0  0  0  0  0
   -5.2036    0.9655   -0.0684 C   0  0  0  0  0  0  0  0  0  0  0  0
    0.2139   -0.3409   -0.0942 N   0  0  0  0  0  0  0  0  0  0  0  0
   -5.1726   -0.4997   -0.0563 C   0  0  0  0  0  0  0  0  0  0  0  0
   -1.3267    1.8878    0.0244 Cl  0  0  0  0  0  0  0  0  0  0  0  0
   -4.0967    3.3746   -0.0611 Cl  0  0  0  0  0  0  0  0  0  0  0  0
    7.7109    0.6829    0.3165 O   0  0  0  0  0  0  0  0  0  0  0  0
   -6.4222    1.6626   -0.0997 O   0  0  0  0  0  0  0  0  0  0  0  0
    3.9343   -1.2009    0.0983 C   0  0  0  0  0  0  0  0  0  0  0  0
    2.6802   -0.3404   -0.1795 C   0  0  0  0  0  0  0  0  0  0  0  0
    5.2766    0.7944    0.4726 C   0  0  0  0  0  0  0  0  0  0  0  0
    6.3387   -1.3116    0.0050 C   0  0  0  0  0  0  0  0  0  0  0  0
    1.4118   -1.1745    0.0991 C   0  0  0  0  0  0  0  0  0  0  0  0
    6.5723    1.5189    0.0384 C   0  0  0  0  0  0  0  0  0  0  0  0
    7.6178   -0.5536   -0.4135 C   0  0  0  0  0  0  0  0  0  0  0  0
   -7.5362    0.7595   -0.1136 C   0  0  0  0  0  0  0  0  0  0  0  0
  2  1  1  0
  3  2  2  0
  4  3  1  0
  5  2  1  0
  6  1  2  0
  7  1  2  0
  8 16  1  0
  9 11  1  0
 10  1  1  0
 11  5  2  0
 12  3  1  0
 13  4  1  0
 14 21  1  0
 15  9  1  0
 16 17  1  0
 17 20  1  0
 18  8  1  0
 19  8  1  0
 20 10  1  0
 21 18  1  0
 22 19  1  0
 23 15  1  0
  9  4  2  0
 14 22  1  0
M  END
>  <Name>  (96) 
Molecule

>  <IDNUMBER>  (96) 
BAS 13048278

>  <Num_H_Acceptors_Lipinski>  (96) 
6

>  <Num_H_Donors_Lipinski>  (96) 
1

>  <Molecular_Weight>  (96) 
383.2906

>  <ALogP>  (96) 
1.942

>  <Num_RotatableBonds>  (96) 
7

>  <Molecular_PolarSurfaceArea>  (96) 
76.25

>  <Num_H_Acceptors>  (96) 
5

>  <Num_H_Donors>  (96) 
1

>  <ADMET_Solubility>  (96) 
-3.286

>  <ADMET_Solubility_Level>  (96) 
3

>  <ADMET_Unknown_AlogP98>  (96) 
0

>  <ADMET_BBB>  (96) 
-0.64

>  <ADMET_BBB_Level>  (96) 
3

>  <ADMET_EXT_CYP2D6>  (96) 
-7.49911391503878

>  <ADMET_EXT_CYP2D6#Prediction>  (96) 
false

>  <ADMET_EXT_CYP2D6_Applicability>  (96) 
OPS PC10 out of range. Value: -3.8657. Training min, max, SD, explained variance: -3.6342, 6.9895, 1.549, 0.0314.

>  <ADMET_EXT_CYP2D6_Applicability#MD>  (96) 
14.9002807152325

>  <ADMET_EXT_CYP2D6_Applicability#MDpvalue>  (96) 
2.64400241146002e-06

>  <ADMET_EXT_Hepatotoxic>  (96) 
-4.88199212758755

>  <ADMET_EXT_Hepatotoxic#Prediction>  (96) 
false

>  <ADMET_EXT_Hepatotoxic_Applicability>  (96) 
All properties and OPS components are within expected ranges.

>  <ADMET_EXT_Hepatotoxic_Applicability#MD>  (96) 
12.7563138764639

>  <ADMET_EXT_Hepatotoxic_Applicability#MDpvalue>  (96) 
5.81242812237972e-06

>  <ADMET_Absorption_Level>  (96) 
0

>  <ADMET_EXT_PPB>  (96) 
1.08893385346909

>  <ADMET_EXT_PPB#Prediction>  (96) 
true

>  <ADMET_EXT_PPB_Applicability>  (96) 
OPS PC11 out of range. Value: -5.3748. Training min, max, SD, explained variance: -5.2845, 6.3989, 1.696, 0.0237.

>  <ADMET_EXT_PPB_Applicability#MD>  (96) 
12.5607048460693

>  <ADMET_EXT_PPB_Applicability#MDpvalue>  (96) 
0.0224861378595838

>  <ADMET_AlogP98>  (96) 
1.942

>  <ADMET_PSA_2D>  (96) 
68.624

$$$$
Molecule
     RDKit          3D

 22 23  0  0  0  0  0  0  0  0999 V2000
    3.9042  -22.2021    0.0609 N   0  0  0  0  0  0  0  0  0  0  0  0
    5.1295  -22.9125    0.0208 C   0  0  0  0  0  0  0  0  0  0  0  0
    5.5887  -20.7191   -0.2548 C   0  0  1  0  0  0  0  0  0  0  0  0
    4.1221  -20.7774    0.2352 C   0  0  0  0  0  0  0  0  0  0  0  0
    6.3498  -19.4287   -0.0764 C   0  0  0  0  0  0  0  0  0  0  0  0
    6.3017  -22.0024    0.1825 C   0  0  0  0  0  0  0  0  0  0  0  0
    2.6109  -22.7960    0.0137 C   0  0  0  0  0  0  0  0  0  0  0  0
    5.2373  -24.1411   -0.0696 O   0  0  0  0  0  0  0  0  0  0  0  0
    5.7396  -18.3632    0.0659 O   0  0  0  0  0  0  0  0  0  0  0  0
    7.6843  -19.4429   -0.0642 N   0  0  0  0  0  0  0  0  0  0  0  0
    9.9385  -18.4957   -0.0971 C   0  0  0  0  0  0  0  0  0  0  0  0
   12.1529  -17.4665   -0.0490 O   0  0  0  0  0  0  0  0  0  0  0  0
    8.4317  -18.2236    0.1257 C   0  0  0  0  0  0  0  0  0  0  0  0
    2.4663  -24.1185   -0.0925 C   0  0  0  0  0  0  0  0  0  0  0  0
    1.4151  -21.9466    0.0876 C   0  0  0  0  0  0  0  0  0  0  0  0
   10.7560  -17.2140    0.1885 C   0  0  0  0  0  0  0  0  0  0  0  0
   12.9476  -16.3210    0.3185 C   0  0  0  0  0  0  0  0  0  0  0  0
   14.4367  -16.6273    0.0641 C   0  0  0  0  0  0  0  0  0  0  0  0
   12.5354  -15.0828   -0.5062 C   0  0  0  0  0  0  0  0  0  0  0  0
    0.2000  -22.4940    0.0487 C   0  0  0  0  0  0  0  0  0  0  0  0
    1.1322  -24.7202   -0.1351 C   0  0  0  0  0  0  0  0  0  0  0  0
    0.0513  -23.9466   -0.0676 C   0  0  0  0  0  0  0  0  0  0  0  0
  2  1  1  0
  3  4  1  0
  4  1  1  0
  3  5  1  1
  6  2  1  0
  7  1  1  0
  8  2  2  0
  9  5  2  0
 10  5  1  0
 11 13  1  0
 12 16  1  0
 13 10  1  0
 14  7  2  0
 15  7  1  0
 16 11  1  0
 17 12  1  0
 18 17  1  0
 19 17  1  0
 20 15  2  0
 21 14  1  0
 22 20  1  0
  3  6  1  0
 21 22  2  0
M  END
>  <Name>  (97) 
Molecule

>  <IDNUMBER>  (97) 
BAS 13778705

>  <Num_H_Acceptors_Lipinski>  (97) 
5

>  <Num_H_Donors_Lipinski>  (97) 
1

>  <Molecular_Weight>  (97) 
304.38406

>  <ALogP>  (97) 
0.967

>  <Num_RotatableBonds>  (97) 
7

>  <Molecular_PolarSurfaceArea>  (97) 
58.64

>  <Num_H_Acceptors>  (97) 
3

>  <Num_H_Donors>  (97) 
1

>  <ADMET_Solubility>  (97) 
-1.784

>  <ADMET_Solubility_Level>  (97) 
4

>  <ADMET_Unknown_AlogP98>  (97) 
0

>  <ADMET_BBB>  (97) 
-0.8

>  <ADMET_BBB_Level>  (97) 
3

>  <ADMET_EXT_CYP2D6>  (97) 
-5.86726959919567

>  <ADMET_EXT_CYP2D6#Prediction>  (97) 
false

>  <ADMET_EXT_CYP2D6_Applicability>  (97) 
All properties and OPS components are within expected ranges.

>  <ADMET_EXT_CYP2D6_Applicability#MD>  (97) 
11.755381056689

>  <ADMET_EXT_CYP2D6_Applicability#MDpvalue>  (97) 
0.00495898945876787

>  <ADMET_EXT_Hepatotoxic>  (97) 
-6.46746990173742

>  <ADMET_EXT_Hepatotoxic#Prediction>  (97) 
false

>  <ADMET_EXT_Hepatotoxic_Applicability>  (97) 
All properties and OPS components are within expected ranges.

>  <ADMET_EXT_Hepatotoxic_Applicability#MD>  (97) 
9.62482402720512

>  <ADMET_EXT_Hepatotoxic_Applicability#MDpvalue>  (97) 
0.187518061744355

>  <ADMET_Absorption_Level>  (97) 
0

>  <ADMET_EXT_PPB>  (97) 
0.678331738687497

>  <ADMET_EXT_PPB#Prediction>  (97) 
true

>  <ADMET_EXT_PPB_Applicability>  (97) 
All properties and OPS components are within expected ranges.

>  <ADMET_EXT_PPB_Applicability#MD>  (97) 
11.9819095857225

>  <ADMET_EXT_PPB_Applicability#MDpvalue>  (97) 
0.0985586014613183

>  <ADMET_AlogP98>  (97) 
0.967

>  <ADMET_PSA_2D>  (97) 
59.694

$$$$
Molecule
     RDKit          3D

 24 25  0  0  0  0  0  0  0  0999 V2000
   -3.5475   -1.6506   -0.0111 N   0  0  0  0  0  0  0  0  0  0  0  0
   -2.4376   -2.5272   -0.1850 C   0  0  0  0  0  0  0  0  0  0  0  0
   -1.6529   -0.4516    0.2284 C   0  0  1  0  0  0  0  0  0  0  0  0
   -0.8059    0.7849    0.1290 C   0  0  0  0  0  0  0  0  0  0  0  0
   -3.1413   -0.2743   -0.1059 C   0  0  0  0  0  0  0  0  0  0  0  0
    2.8912    1.6871   -0.0337 C   0  0  0  0  0  0  0  0  0  0  0  0
    0.5451    0.7033    0.0583 N   0  0  0  0  0  0  0  0  0  0  0  0
    1.4168    1.8585   -0.0085 C   0  0  0  0  0  0  0  0  0  0  0  0
   -1.1569   -1.7613   -0.3969 C   0  0  0  0  0  0  0  0  0  0  0  0
    3.5245    0.3749   -0.0030 C   0  0  0  0  0  0  0  0  0  0  0  0
   -4.9520   -2.0457    0.1487 C   0  0  0  0  0  0  0  0  0  0  0  0
   -2.5013   -3.7623   -0.2157 O   0  0  0  0  0  0  0  0  0  0  0  0
   -1.3970    1.8688    0.1404 O   0  0  0  0  0  0  0  0  0  0  0  0
    2.8420   -0.6579    0.0386 O   0  0  0  0  0  0  0  0  0  0  0  0
    4.9194    0.3070   -0.0200 O   0  0  0  0  0  0  0  0  0  0  0  0
    3.6844    2.7614   -0.0828 C   0  0  0  0  0  0  0  0  0  0  0  0
    0.9227    3.0964   -0.0367 C   0  0  0  0  0  0  0  0  0  0  0  0
   -5.1105   -3.3397    0.9767 C   0  0  0  0  0  0  0  0  0  0  0  0
   -5.7471   -0.9022    0.8178 C   0  0  0  0  0  0  0  0  0  0  0  0
   -5.5506   -2.2884   -1.2490 C   0  0  0  0  0  0  0  0  0  0  0  0
    5.3718   -1.0446    0.0162 C   0  0  0  0  0  0  0  0  0  0  0  0
    3.1174    4.1019   -0.1144 C   0  0  0  0  0  0  0  0  0  0  0  0
    1.7992    4.2629   -0.0935 C   0  0  0  0  0  0  0  0  0  0  0  0
    6.9136   -1.0557    0.0014 C   0  0  0  0  0  0  0  0  0  0  0  0
  2  1  1  0
  3  5  1  0
  3  4  1  6
  5  1  1  0
  6  8  2  0
  7  4  1  0
  8  7  1  0
  9  2  1  0
 10  6  1  0
 11  1  1  0
 12  2  2  0
 13  4  2  0
 14 10  2  0
 15 10  1  0
 16  6  1  0
 17  8  1  0
 18 11  1  0
 19 11  1  0
 20 11  1  0
 21 15  1  0
 22 23  1  0
 23 17  2  0
 24 21  1  0
  9  3  1  0
 22 16  2  0
M  END
>  <Name>  (98) 
Molecule

>  <IDNUMBER>  (98) 
BAS 13779819

>  <Num_H_Acceptors_Lipinski>  (98) 
6

>  <Num_H_Donors_Lipinski>  (98) 
1

>  <Molecular_Weight>  (98) 
332.39416

>  <ALogP>  (98) 
1.445

>  <Num_RotatableBonds>  (98) 
6

>  <Molecular_PolarSurfaceArea>  (98) 
75.71

>  <Num_H_Acceptors>  (98) 
4

>  <Num_H_Donors>  (98) 
1

>  <ADMET_Solubility>  (98) 
-2.673

>  <ADMET_Solubility_Level>  (98) 
3

>  <ADMET_Unknown_AlogP98>  (98) 
0

>  <ADMET_BBB>  (98) 
-0.926

>  <ADMET_BBB_Level>  (98) 
3

>  <ADMET_EXT_CYP2D6>  (98) 
-9.63642821544913

>  <ADMET_EXT_CYP2D6#Prediction>  (98) 
false

>  <ADMET_EXT_CYP2D6_Applicability>  (98) 
All properties and OPS components are within expected ranges.

>  <ADMET_EXT_CYP2D6_Applicability#MD>  (98) 
13.3636951229089

>  <ADMET_EXT_CYP2D6_Applicability#MDpvalue>  (98) 
0.000127225534083558

>  <ADMET_EXT_Hepatotoxic>  (98) 
-6.48074384344361

>  <ADMET_EXT_Hepatotoxic#Prediction>  (98) 
false

>  <ADMET_EXT_Hepatotoxic_Applicability>  (98) 
All properties and OPS components are within expected ranges.

>  <ADMET_EXT_Hepatotoxic_Applicability#MD>  (98) 
10.1214441995163

>  <ADMET_EXT_Hepatotoxic_Applicability#MDpvalue>  (98) 
0.0687527191388333

>  <ADMET_Absorption_Level>  (98) 
0

>  <ADMET_EXT_PPB>  (98) 
-0.359506336125261

>  <ADMET_EXT_PPB#Prediction>  (98) 
true

>  <ADMET_EXT_PPB_Applicability>  (98) 
All properties and OPS components are within expected ranges.

>  <ADMET_EXT_PPB_Applicability#MD>  (98) 
13.2486449731431

>  <ADMET_EXT_PPB_Applicability#MDpvalue>  (98) 
0.00231359863509836

>  <ADMET_AlogP98>  (98) 
1.445

>  <ADMET_PSA_2D>  (98) 
76.995

$$$$
Molecule
     RDKit          3D

 25 27  0  0  0  0  0  0  0  0999 V2000
    4.0023   -0.7787   -0.1170 C   0  0  0  0  0  0  0  0  0  0  0  0
   -5.0141   -0.3370    0.0279 C   0  0  0  0  0  0  0  0  0  0  0  0
    2.7150   -0.1165   -0.0201 N   0  0  0  0  0  0  0  0  0  0  0  0
   -4.0740   -1.3303    0.0899 O   0  0  0  0  0  0  0  0  0  0  0  0
    0.1317    1.0827   -0.0229 N   0  0  0  0  0  0  0  0  0  0  0  0
   -4.7563    1.1318    0.0506 C   0  0  0  0  0  0  0  0  0  0  0  0
   -4.7358   -2.5105    0.0306 C   0  0  0  0  0  0  0  0  0  0  0  0
    5.3671   -0.1294    0.0119 C   0  0  0  0  0  0  0  0  0  0  0  0
   -1.1346    1.6674   -0.0736 C   0  0  0  0  0  0  0  0  0  0  0  0
   -6.2323   -0.8659   -0.0666 C   0  0  0  0  0  0  0  0  0  0  0  0
   -6.0473   -2.3128   -0.0638 C   0  0  0  0  0  0  0  0  0  0  0  0
   -3.5264    1.6615    0.1549 N   0  0  0  0  0  0  0  0  0  0  0  0
    6.5202   -0.8437   -0.1077 O   0  0  0  0  0  0  0  0  0  0  0  0
   -2.3418    0.8631    0.2785 C   0  0  0  0  0  0  0  0  0  0  0  0
    1.5388   -0.9265   -0.2357 C   0  0  0  0  0  0  0  0  0  0  0  0
    2.5469    1.2953    0.2707 C   0  0  0  0  0  0  0  0  0  0  0  0
    1.2752    1.8545   -0.4005 C   0  0  0  0  0  0  0  0  0  0  0  0
    0.2838   -0.2850    0.4108 C   0  0  0  0  0  0  0  0  0  0  0  0
    3.9864   -1.9901   -0.3604 O   0  0  0  0  0  0  0  0  0  0  0  0
    5.6632    1.1493    0.2366 C   0  0  0  0  0  0  0  0  0  0  0  0
   -5.7211    1.8990   -0.0393 O   0  0  0  0  0  0  0  0  0  0  0  0
   -1.2590    2.8416   -0.4383 O   0  0  0  0  0  0  0  0  0  0  0  0
    7.5810    0.0111    0.0471 C   0  0  0  0  0  0  0  0  0  0  0  0
    7.1090    1.2385    0.2598 C   0  0  0  0  0  0  0  0  0  0  0  0
   -3.8969   -4.2155    0.0745 Br  0  0  0  0  0  0  0  0  0  0  0  0
  2  6  1  0
  3  1  1  0
  4  2  1  0
  5 17  1  0
  6 12  1  0
  7  4  1  0
  8  1  1  0
  9  5  1  0
 10  2  2  0
 11 10  1  0
 12 14  1  0
 13  8  1  0
 14  9  1  0
 15  3  1  0
 16  3  1  0
 17 16  1  0
 18 15  1  0
 19  1  2  0
 20  8  2  0
 21  6  2  0
 22  9  2  0
 23 13  1  0
 24 20  1  0
 25  7  1  0
 23 24  2  0
  5 18  1  0
  7 11  2  0
M  END
>  <Name>  (99) 
Molecule

>  <IDNUMBER>  (99) 
BAS 14213504

>  <Num_H_Acceptors_Lipinski>  (99) 
8

>  <Num_H_Donors_Lipinski>  (99) 
1

>  <Molecular_Weight>  (99) 
410.21934

>  <ALogP>  (99) 
0.543

>  <Num_RotatableBonds>  (99) 
4

>  <Molecular_PolarSurfaceArea>  (99) 
96

>  <Num_H_Acceptors>  (99) 
3

>  <Num_H_Donors>  (99) 
1

>  <ADMET_Solubility>  (99) 
-2.002

>  <ADMET_Solubility_Level>  (99) 
3

>  <ADMET_Unknown_AlogP98>  (99) 
0

>  <ADMET_BBB>  (99) 
-1.514

>  <ADMET_BBB_Level>  (99) 
3

>  <ADMET_EXT_CYP2D6>  (99) 
-10.700207635839

>  <ADMET_EXT_CYP2D6#Prediction>  (99) 
false

>  <ADMET_EXT_CYP2D6_Applicability>  (99) 
All properties and OPS components are within expected ranges.
Unknown FCFP_2 feature: -1374812327: Cl[c]1:[cH]:[*]:[*]:s:1

>  <ADMET_EXT_CYP2D6_Applicability#MD>  (99) 
14.9243511434491

>  <ADMET_EXT_CYP2D6_Applicability#MDpvalue>  (99) 
2.48392347138945e-06

>  <ADMET_EXT_Hepatotoxic>  (99) 
-5.01742726757567

>  <ADMET_EXT_Hepatotoxic#Prediction>  (99) 
false

>  <ADMET_EXT_Hepatotoxic_Applicability>  (99) 
All properties and OPS components are within expected ranges.

>  <ADMET_EXT_Hepatotoxic_Applicability#MD>  (99) 
9.89018566082438

>  <ADMET_EXT_Hepatotoxic_Applicability#MDpvalue>  (99) 
0.113351467992303

>  <ADMET_Absorption_Level>  (99) 
0

>  <ADMET_EXT_PPB>  (99) 
-7.81339678044439

>  <ADMET_EXT_PPB#Prediction>  (99) 
false

>  <ADMET_EXT_PPB_Applicability>  (99) 
All properties and OPS components are within expected ranges.

>  <ADMET_EXT_PPB_Applicability#MD>  (99) 
10.9254653039258

>  <ADMET_EXT_PPB_Applicability#MDpvalue>  (99) 
0.525743222279969

>  <ADMET_AlogP98>  (99) 
0.543

>  <ADMET_PSA_2D>  (99) 
96.526

$$$$
Molecule
     RDKit          3D

 23 24  0  0  0  0  0  0  0  0999 V2000
   -1.0224   -2.0795    0.2487 S   0  0  0  0  0  0  0  0  0  0  0  0
   -1.1832   -0.3183    0.0590 N   0  0  0  0  0  0  0  0  0  0  0  0
   -2.4620    0.3797   -0.0117 C   0  0  0  0  0  0  0  0  0  0  0  0
    0.0374    0.5312    0.0505 C   0  0  0  0  0  0  0  0  0  0  0  0
   -3.7487   -0.3272   -0.1031 C   0  0  0  0  0  0  0  0  0  0  0  0
    1.3428   -0.2173   -0.2330 C   0  0  0  0  0  0  0  0  0  0  0  0
   -4.9039    0.3452   -0.1384 C   0  0  0  0  0  0  0  0  0  0  0  0
   -0.7156   -2.6938   -1.1048 O   0  0  0  0  0  0  0  0  0  0  0  0
    0.1395   -2.3573    1.1847 O   0  0  0  0  0  0  0  0  0  0  0  0
   -4.8946    1.7982   -0.0921 C   0  0  0  0  0  0  0  0  0  0  0  0
    2.5212    0.3423    0.0334 N   0  0  0  0  0  0  0  0  0  0  0  0
   -2.4705    1.7108    0.0193 C   0  0  0  0  0  0  0  0  0  0  0  0
    1.3347   -1.3617   -0.6912 O   0  0  0  0  0  0  0  0  0  0  0  0
    6.1526   -0.4963    0.0487 O   0  0  0  0  0  0  0  0  0  0  0  0
   -3.7429    2.4543   -0.0229 C   0  0  0  0  0  0  0  0  0  0  0  0
   -2.4419   -2.9613    0.9744 C   0  0  0  0  0  0  0  0  0  0  0  0
   -6.0609   -0.3243   -0.2155 F   0  0  0  0  0  0  0  0  0  0  0  0
   -6.0582    2.4712   -0.1214 F   0  0  0  0  0  0  0  0  0  0  0  0
    3.7064   -0.4431   -0.2045 C   0  0  0  0  0  0  0  0  0  0  0  0
    4.9764    0.2890    0.2649 C   0  0  2  0  0  0  0  0  0  0  0  0
    7.2629    0.4428    0.1913 C   0  0  0  0  0  0  0  0  0  0  0  0
    5.2694    1.5383   -0.5325 C   0  0  0  0  0  0  0  0  0  0  0  0
    6.6071    1.8545    0.1133 C   0  0  0  0  0  0  0  0  0  0  0  0
  2  1  1  0
  3  2  1  0
  4  2  1  0
  5  3  2  0
  6  4  1  0
  7  5  1  0
  8  1  2  0
  9  1  2  0
 10 15  1  0
 11  6  1  0
 12  3  1  0
 13  6  2  0
 14 20  1  0
 15 12  2  0
 16  1  1  0
 17  7  1  0
 18 10  1  0
 19 11  1  0
 20 19  1  6
 21 14  1  0
 22 20  1  0
 23 22  1  0
 10  7  2  0
 21 23  1  0
M  END
>  <Name>  (100) 
Molecule

>  <IDNUMBER>  (100) 
BAS 14215528

>  <Num_H_Acceptors_Lipinski>  (100) 
6

>  <Num_H_Donors_Lipinski>  (100) 
1

>  <Molecular_Weight>  (100) 
348.36553

>  <ALogP>  (100) 
0.776

>  <Num_RotatableBonds>  (100) 
6

>  <Molecular_PolarSurfaceArea>  (100) 
84.09

>  <Num_H_Acceptors>  (100) 
4

>  <Num_H_Donors>  (100) 
1

>  <ADMET_Solubility>  (100) 
-2.188

>  <ADMET_Solubility_Level>  (100) 
3

>  <ADMET_Unknown_AlogP98>  (100) 
0

>  <ADMET_BBB>  (100) 
-1.132

>  <ADMET_BBB_Level>  (100) 
3

>  <ADMET_EXT_CYP2D6>  (100) 
-10.1392876762328

>  <ADMET_EXT_CYP2D6#Prediction>  (100) 
false

>  <ADMET_EXT_CYP2D6_Applicability>  (100) 
All properties and OPS components are within expected ranges.
Unknown FCFP_2 feature: 1018882710: [*]CS(=O)(=O)O[*]

>  <ADMET_EXT_CYP2D6_Applicability#MD>  (100) 
9.69117531207496

>  <ADMET_EXT_CYP2D6_Applicability#MDpvalue>  (100) 
0.179077486579935

>  <ADMET_EXT_Hepatotoxic>  (100) 
-4.5015075882476

>  <ADMET_EXT_Hepatotoxic#Prediction>  (100) 
false

>  <ADMET_EXT_Hepatotoxic_Applicability>  (100) 
All properties and OPS components are within expected ranges.
Unknown FCFP_2 feature: 1018882710: [*]CS(=O)(=O)O[*]

>  <ADMET_EXT_Hepatotoxic_Applicability#MD>  (100) 
10.2254826704121

>  <ADMET_EXT_Hepatotoxic_Applicability#MDpvalue>  (100) 
0.0538984552975749

>  <ADMET_Absorption_Level>  (100) 
0

>  <ADMET_EXT_PPB>  (100) 
-1.41143420540897

>  <ADMET_EXT_PPB#Prediction>  (100) 
true

>  <ADMET_EXT_PPB_Applicability>  (100) 
All properties and OPS components are within expected ranges.

>  <ADMET_EXT_PPB_Applicability#MD>  (100) 
12.3858280912691

>  <ADMET_EXT_PPB_Applicability#MDpvalue>  (100) 
0.0366655832363665

>  <ADMET_AlogP98>  (100) 
0.776

>  <ADMET_PSA_2D>  (100) 
76.995

$$$$
Molecule
     RDKit          3D

 28 30  0  0  0  0  0  0  0  0999 V2000
   -1.2767    1.5021    0.0074 N   0  0  0  0  0  0  0  0  0  0  0  0
   -1.1425    0.1113    0.0110 C   0  0  0  0  0  0  0  0  0  0  0  0
   -2.2356   -0.7672    0.0043 N   0  0  0  0  0  0  0  0  0  0  0  0
   -3.6731    1.1284   -0.0014 C   0  0  0  0  0  0  0  0  0  0  0  0
   -2.5802    2.0621    0.0009 C   0  0  0  0  0  0  0  0  0  0  0  0
   -3.5123   -0.1827    0.0000 C   0  0  0  0  0  0  0  0  0  0  0  0
   -5.2878    1.4754   -0.0056 S   0  0  0  0  0  0  0  0  0  0  0  0
   -4.8294   -0.9418   -0.0026 C   0  0  0  0  0  0  0  0  0  0  0  0
   -2.1153   -2.2643    0.0036 C   0  0  0  0  0  0  0  0  0  0  0  0
   -0.7307   -3.0426   -0.0004 C   0  0  0  0  0  0  0  0  0  0  0  0
   -0.0188   -0.3223    0.0180 O   0  0  0  0  0  0  0  0  0  0  0  0
   -5.8892   -0.1066   -0.0056 C   0  0  0  0  0  0  0  0  0  0  0  0
   -2.8064    3.2744   -0.0019 O   0  0  0  0  0  0  0  0  0  0  0  0
    3.1158   -2.7866   -0.0041 C   0  0  0  0  0  0  0  0  0  0  0  0
    0.5043   -2.4827   -0.0052 N   0  0  0  0  0  0  0  0  0  0  0  0
    1.6625   -3.3736   -0.0072 C   0  0  0  0  0  0  0  0  0  0  0  0
   -0.0116    2.2574    0.0115 C   0  0  0  0  0  0  0  0  0  0  0  0
    3.4975   -1.3249   -0.0107 C   0  0  0  0  0  0  0  0  0  0  0  0
   -0.7871   -4.2784    0.0014 O   0  0  0  0  0  0  0  0  0  0  0  0
    2.3807   -0.0677   -0.0256 Cl  0  0  0  0  0  0  0  0  0  0  0  0
   -0.0681    3.7893   -0.0007 C   0  0  0  0  0  0  0  0  0  0  0  0
    1.3828    5.7377   -0.0044 O   0  0  0  0  0  0  0  0  0  0  0  0
    4.1078   -3.6776    0.0049 C   0  0  0  0  0  0  0  0  0  0  0  0
    1.3815    4.3121    0.0048 C   0  0  0  0  0  0  0  0  0  0  0  0
    4.7798   -0.9688   -0.0069 C   0  0  0  0  0  0  0  0  0  0  0  0
    2.7324    6.2100    0.0005 C   0  0  0  0  0  0  0  0  0  0  0  0
    5.5127   -3.2547    0.0088 C   0  0  0  0  0  0  0  0  0  0  0  0
    5.8286   -1.9646    0.0036 C   0  0  0  0  0  0  0  0  0  0  0  0
  2  1  1  0
  3  2  1  0
  4  5  1  0
  5  1  1  0
  6  4  2  0
  7  4  1  0
  8  6  1  0
  9  3  1  0
 10  9  1  0
 11  2  2  0
 12  7  1  0
 13  5  2  0
 14 16  1  0
 15 10  1  0
 16 15  1  0
 17  1  1  0
 18 14  2  0
 19 10  2  0
 20 18  1  0
 21 17  1  0
 22 24  1  0
 23 14  1  0
 24 21  1  0
 25 18  1  0
 26 22  1  0
 27 23  2  0
 28 27  1  0
  3  6  1  0
 12  8  2  0
 28 25  2  0
M  END
>  <Name>  (101) 
Molecule

>  <IDNUMBER>  (101) 
BAS 15807602

>  <Num_H_Acceptors_Lipinski>  (101) 
7

>  <Num_H_Donors_Lipinski>  (101) 
1

>  <Molecular_Weight>  (101) 
421.8978

>  <ALogP>  (101) 
2.169

>  <Num_RotatableBonds>  (101) 
8

>  <Molecular_PolarSurfaceArea>  (101) 
107.19

>  <Num_H_Acceptors>  (101) 
4

>  <Num_H_Donors>  (101) 
1

>  <ADMET_Solubility>  (101) 
-3.61

>  <ADMET_Solubility_Level>  (101) 
3

>  <ADMET_Unknown_AlogP98>  (101) 
0

>  <ADMET_BBB>  (101) 
-0.663

>  <ADMET_BBB_Level>  (101) 
3

>  <ADMET_EXT_CYP2D6>  (101) 
-2.62279728696082

>  <ADMET_EXT_CYP2D6#Prediction>  (101) 
false

>  <ADMET_EXT_CYP2D6_Applicability>  (101) 
All properties and OPS components are within expected ranges.

>  <ADMET_EXT_CYP2D6_Applicability#MD>  (101) 
16.4500814503911

>  <ADMET_EXT_CYP2D6_Applicability#MDpvalue>  (101) 
4.45545288036316e-08

>  <ADMET_EXT_Hepatotoxic>  (101) 
-4.9502547922448

>  <ADMET_EXT_Hepatotoxic#Prediction>  (101) 
false

>  <ADMET_EXT_Hepatotoxic_Applicability>  (101) 
All properties and OPS components are within expected ranges.

>  <ADMET_EXT_Hepatotoxic_Applicability#MD>  (101) 
16.0842683999615

>  <ADMET_EXT_Hepatotoxic_Applicability#MDpvalue>  (101) 
3.09327100995498e-14

>  <ADMET_Absorption_Level>  (101) 
0

>  <ADMET_EXT_PPB>  (101) 
1.87331000408752

>  <ADMET_EXT_PPB#Prediction>  (101) 
true

>  <ADMET_EXT_PPB_Applicability>  (101) 
All properties and OPS components are within expected ranges.

>  <ADMET_EXT_PPB_Applicability#MD>  (101) 
17.8766762587708

>  <ADMET_EXT_PPB_Applicability#MDpvalue>  (101) 
2.26125048937936e-15

>  <ADMET_AlogP98>  (101) 
2.466

>  <ADMET_PSA_2D>  (101) 
80.347

$$$$
Molecule
     RDKit          3D

 15 16  0  0  0  0  0  0  0  0999 V2000
    3.1419    3.8841   -0.0534 N   0  0  0  0  0  0  0  0  0  0  0  0
    2.8194    5.2620    0.0076 C   0  0  0  0  0  0  0  0  0  0  0  0
    4.4669    3.1763    0.0014 C   0  0  0  0  0  0  0  0  0  0  0  0
    5.8661    3.8629   -0.0063 C   0  0  0  0  0  0  0  0  0  0  0  0
    3.6085    6.1977    0.1270 O   0  0  0  0  0  0  0  0  0  0  0  0
    6.9438    3.0732    0.0147 C   0  0  0  0  0  0  0  0  0  0  0  0
    1.9429    3.1091   -0.2294 C   0  0  0  0  0  0  0  0  0  0  0  0
    8.1233    0.9532    0.0395 N   0  0  0  0  0  0  0  0  0  0  0  0
    1.3571    5.4860   -0.1262 C   0  0  0  0  0  0  0  0  0  0  0  0
    0.8433    4.0853    0.2786 C   0  0  0  0  0  0  0  0  0  0  0  0
    6.7919    1.5767    0.0437 C   0  0  0  0  0  0  0  0  0  0  0  0
    6.0712    5.3132   -0.0394 C   0  0  0  0  0  0  0  0  0  0  0  0
    8.2936    3.6477    0.0077 C   0  0  0  0  0  0  0  0  0  0  0  0
    7.2952    5.8370   -0.0448 C   0  0  0  0  0  0  0  0  0  0  0  0
    8.4597    4.9665   -0.0199 C   0  0  0  0  0  0  0  0  0  0  0  0
  2  1  1  0
  3  1  1  0
  4  3  1  0
  5  2  2  0
  6  4  2  0
  7  1  1  0
  8 11  1  0
  9  2  1  0
 10  7  1  0
 11  6  1  0
 12  4  1  0
 13  6  1  0
 14 12  2  0
 15 14  1  0
  9 10  1  0
 15 13  2  0
M  END
>  <Name>  (102) 
Molecule

>  <IDNUMBER>  (102) 
BAS 23518853

>  <Num_H_Acceptors_Lipinski>  (102) 
3

>  <Num_H_Donors_Lipinski>  (102) 
2

>  <Molecular_Weight>  (102) 
204.26824

>  <ALogP>  (102) 
0.524

>  <Num_RotatableBonds>  (102) 
3

>  <Molecular_PolarSurfaceArea>  (102) 
46.33

>  <Num_H_Acceptors>  (102) 
2

>  <Num_H_Donors>  (102) 
1

>  <ADMET_Solubility>  (102) 
-1.454

>  <ADMET_Solubility_Level>  (102) 
4

>  <ADMET_Unknown_AlogP98>  (102) 
0

>  <ADMET_BBB>  (102) 
-0.739

>  <ADMET_BBB_Level>  (102) 
3

>  <ADMET_EXT_CYP2D6>  (102) 
-7.41152061432086

>  <ADMET_EXT_CYP2D6#Prediction>  (102) 
false

>  <ADMET_EXT_CYP2D6_Applicability>  (102) 
All properties and OPS components are within expected ranges.

>  <ADMET_EXT_CYP2D6_Applicability#MD>  (102) 
11.9247089223902

>  <ADMET_EXT_CYP2D6_Applicability#MDpvalue>  (102) 
0.00346550429071741

>  <ADMET_EXT_Hepatotoxic>  (102) 
-5.73184298874364

>  <ADMET_EXT_Hepatotoxic#Prediction>  (102) 
false

>  <ADMET_EXT_Hepatotoxic_Applicability>  (102) 
All properties and OPS components are within expected ranges.

>  <ADMET_EXT_Hepatotoxic_Applicability#MD>  (102) 
8.98145807533381

>  <ADMET_EXT_Hepatotoxic_Applicability#MDpvalue>  (102) 
0.466368099729415

>  <ADMET_Absorption_Level>  (102) 
0

>  <ADMET_EXT_PPB>  (102) 
-10.1224852840106

>  <ADMET_EXT_PPB#Prediction>  (102) 
false

>  <ADMET_EXT_PPB_Applicability>  (102) 
All properties and OPS components are within expected ranges.

>  <ADMET_EXT_PPB_Applicability#MD>  (102) 
10.34705485454

>  <ADMET_EXT_PPB_Applicability#MDpvalue>  (102) 
0.798212808083952

>  <ADMET_AlogP98>  (102) 
0.524

>  <ADMET_PSA_2D>  (102) 
47.193

$$$$
