STOCK6S-02270
     RDKit          3D

 18 19  0  0  0  0  0  0  0  0999 V2000
    3.2378   -4.8993    0.0001 N   0  0  0  0  0  0  0  0  0  0  0  0
    3.3961   -3.6265    0.0001 C   0  0  0  0  0  0  0  0  0  0  0  0
    2.1468   -2.9517    0.0002 N   0  0  0  0  0  0  0  0  0  0  0  0
    1.8562   -5.1162    0.0002 C   0  0  0  0  0  0  0  0  0  0  0  0
    1.2249   -3.9678    0.0003 C   0  0  0  0  0  0  0  0  0  0  0  0
    5.7767   -0.6314    0.0003 C   0  0  0  0  0  0  0  0  0  0  0  0
    5.7391    0.6040    0.0006 O   0  0  0  0  0  0  0  0  0  0  0  0
    4.7313   -2.9288    0.0000 C   0  0  0  0  0  0  0  0  0  0  0  0
    6.9577   -1.2459    0.0000 N   0  0  0  0  0  0  0  0  0  0  0  0
    4.4843   -1.4089    0.0002 C   0  0  0  0  0  0  0  0  0  0  0  0
    1.1480   -6.3797    0.0003 C   0  0  0  0  0  0  0  0  0  0  0  0
   10.5683   -0.4649   -0.0002 O   0  0  0  0  0  0  0  0  0  0  0  0
   -0.2197   -3.8758    0.0004 C   0  0  0  0  0  0  0  0  0  0  0  0
    8.1514   -0.4381    0.0001 C   0  0  0  0  0  0  0  0  0  0  0  0
    9.4145   -1.3168   -0.0003 C   0  0  0  0  0  0  0  0  0  0  0  0
   11.7582   -1.2568   -0.0004 C   0  0  0  0  0  0  0  0  0  0  0  0
   -0.1894   -6.3376    0.0004 C   0  0  0  0  0  0  0  0  0  0  0  0
   -0.9082   -5.0224    0.0005 C   0  0  0  0  0  0  0  0  0  0  0  0
  2  1  2  0
  3  2  1  0
  4  1  1  0
  5  4  2  0
  6 10  1  0
  7  6  2  0
  8  2  1  0
  9  6  1  0
 10  8  1  0
 11  4  1  0
 12 15  1  0
 13  5  1  0
 14  9  1  0
 15 14  1  0
 16 12  1  0
 17 11  2  0
 18 17  1  0
  5  3  1  0
 18 13  2  0
M  END
>  <Name>  (1) 
STOCK6S-02270

>  <id>  (1) 
STOCK6S-02270

>  <index>  (1) 
SCD

>  <donors>  (1) 
2

>  <acceptors>  (1) 
5

>  <rotatable>  (1) 
7

>  <clogp>  (1) 
0.648

>  <rings>  (1) 
2

>  <tpsa>  (1) 
67.01

>  <iupac_name>  (1) 
3-(1H-benzo[d]imidazol-2-yl)-N-(2-methoxyethyl)propanamide

>  <Num_H_Acceptors_Lipinski>  (1) 
5

>  <Num_H_Donors_Lipinski>  (1) 
2

>  <Molecular_Weight>  (1) 
247.29298

>  <ALogP>  (1) 
0.898

>  <Num_RotatableBonds>  (1) 
6

>  <Molecular_PolarSurfaceArea>  (1) 
67.01

>  <Num_H_Acceptors>  (1) 
3

>  <Num_H_Donors>  (1) 
2

>  <ADMET_Solubility>  (1) 
-1.905

>  <ADMET_Solubility_Level>  (1) 
4

>  <ADMET_Unknown_AlogP98>  (1) 
0

>  <ADMET_BBB>  (1) 
-0.91

>  <ADMET_BBB_Level>  (1) 
3

>  <ADMET_EXT_CYP2D6>  (1) 
-8.90605869067326

>  <ADMET_EXT_CYP2D6#Prediction>  (1) 
false

>  <ADMET_EXT_CYP2D6_Applicability>  (1) 
All properties and OPS components are within expected ranges.

>  <ADMET_EXT_CYP2D6_Applicability#MD>  (1) 
18.5509565064353

>  <ADMET_EXT_CYP2D6_Applicability#MDpvalue>  (1) 
1.63527896990428e-10

>  <ADMET_EXT_Hepatotoxic>  (1) 
-5.82576212010586

>  <ADMET_EXT_Hepatotoxic#Prediction>  (1) 
false

>  <ADMET_EXT_Hepatotoxic_Applicability>  (1) 
All properties and OPS components are within expected ranges.

>  <ADMET_EXT_Hepatotoxic_Applicability#MD>  (1) 
13.3989591556102

>  <ADMET_EXT_Hepatotoxic_Applicability#MDpvalue>  (1) 
2.45513237131181e-07

>  <ADMET_Absorption_Level>  (1) 
0

>  <ADMET_EXT_PPB>  (1) 
-2.20149135732332

>  <ADMET_EXT_PPB#Prediction>  (1) 
true

>  <ADMET_EXT_PPB_Applicability>  (1) 
All properties and OPS components are within expected ranges.

>  <ADMET_EXT_PPB_Applicability#MD>  (1) 
12.2783778038648

>  <ADMET_EXT_PPB_Applicability#MDpvalue>  (1) 
0.0486214100475418

>  <ADMET_AlogP98>  (1) 
0.898

>  <ADMET_PSA_2D>  (1) 
65.357

$$$$
STOCK6S-04954
     RDKit          3D

 23 24  0  0  0  0  0  0  0  0999 V2000
    4.6564   -6.8705   -0.0002 C   0  0  0  0  0  0  0  0  0  0  0  0
    4.6234   -5.5467    0.0001 C   0  0  0  0  0  0  0  0  0  0  0  0
    6.0543   -7.3185   -0.0004 N   0  0  0  0  0  0  0  0  0  0  0  0
    3.4203   -7.6818   -0.0002 N   0  0  0  0  0  0  0  0  0  0  0  0
    2.0954   -5.5729    0.0004 N   0  0  0  0  0  0  0  0  0  0  0  0
    2.1377   -7.0029    0.0004 C   0  0  0  0  0  0  0  0  0  0  0  0
    3.3123   -4.8200    0.0004 C   0  0  0  0  0  0  0  0  0  0  0  0
    6.8328   -6.2737   -0.0002 C   0  0  0  0  0  0  0  0  0  0  0  0
    6.0087   -5.0694    0.0002 N   0  0  0  0  0  0  0  0  0  0  0  0
   14.8108   -1.1838    0.0003 N   0  0  0  0  0  0  0  0  0  0  0  0
    1.0756   -7.6517    0.0005 O   0  0  0  0  0  0  0  0  0  0  0  0
    3.2507   -3.5907    0.0004 O   0  0  0  0  0  0  0  0  0  0  0  0
   14.2645   -2.2016   -0.0004 C   0  0  0  0  0  0  0  0  0  0  0  0
    8.7148   -6.3725   -0.0002 S   0  0  0  0  0  0  0  0  0  0  0  0
    3.4563   -9.1384   -0.0006 C   0  0  0  0  0  0  0  0  0  0  0  0
    0.8160   -4.8778    0.0005 C   0  0  0  0  0  0  0  0  0  0  0  0
    6.5754   -3.6565    0.0007 C   0  0  0  0  0  0  0  0  0  0  0  0
    5.6429   -2.4627    0.0003 C   0  0  0  0  0  0  0  0  0  0  0  0
    6.1185   -1.2138   -0.0009 C   0  0  0  0  0  0  0  0  0  0  0  0
   13.5515   -3.5345   -0.0012 C   0  0  0  0  0  0  0  0  0  0  0  0
    9.6725   -4.7476    0.0001 C   0  0  0  0  0  0  0  0  0  0  0  0
   11.9643   -3.4267   -0.0003 C   0  0  0  0  0  0  0  0  0  0  0  0
   11.2596   -4.8742   -0.0005 C   0  0  0  0  0  0  0  0  0  0  0  0
  2  1  2  0
  3  1  1  0
  4  1  1  0
  5  6  1  0
  6  4  1  0
  7  2  1  0
  8  3  2  0
  9  2  1  0
 10 13  3  0
 11  6  2  0
 12  7  2  0
 13 20  1  0
 14  8  1  0
 15  4  1  0
 16  5  1  0
 17  9  1  0
 18 17  1  0
 19 18  2  0
 20 22  1  0
 21 14  1  0
 22 23  1  0
 23 21  1  0
  8  9  1  0
  7  5  1  0
M  END
>  <Name>  (2) 
STOCK6S-04954

>  <id>  (2) 
STOCK6S-04954

>  <index>  (2) 
SCD

>  <donors>  (2) 
0

>  <acceptors>  (2) 
7

>  <rotatable>  (2) 
7

>  <clogp>  (2) 
1.848

>  <rings>  (2) 
2

>  <tpsa>  (2) 
85.61

>  <iupac_name>  (2) 
5-((7-allyl-1,3-dimethyl-2,6-dioxo-2,3,6,7-tetrahydro-1H-purin-8-yl)thio)pentanenitrile

>  <Num_H_Acceptors_Lipinski>  (2) 
7

>  <Num_H_Donors_Lipinski>  (2) 
0

>  <Molecular_Weight>  (2) 
333.40866

>  <ALogP>  (2) 
2.356

>  <Num_RotatableBonds>  (2) 
7

>  <Molecular_PolarSurfaceArea>  (2) 
107.52

>  <Num_H_Acceptors>  (2) 
5

>  <Num_H_Donors>  (2) 
0

>  <ADMET_Solubility>  (2) 
-3.619

>  <ADMET_Solubility_Level>  (2) 
3

>  <ADMET_Unknown_AlogP98>  (2) 
0

>  <ADMET_BBB>  (2) 
-0.543

>  <ADMET_BBB_Level>  (2) 
3

>  <ADMET_EXT_CYP2D6>  (2) 
-8.30880517147578

>  <ADMET_EXT_CYP2D6#Prediction>  (2) 
false

>  <ADMET_EXT_CYP2D6_Applicability>  (2) 
All properties and OPS components are within expected ranges.
Unknown FCFP_2 feature: -1410079687: [*]S[c]1:n:[*]:[*]:n:1

>  <ADMET_EXT_CYP2D6_Applicability#MD>  (2) 
16.9868128119624

>  <ADMET_EXT_CYP2D6_Applicability#MDpvalue>  (2) 
1.06449238255343e-08

>  <ADMET_EXT_Hepatotoxic>  (2) 
-9.46822949156633

>  <ADMET_EXT_Hepatotoxic#Prediction>  (2) 
false

>  <ADMET_EXT_Hepatotoxic_Applicability>  (2) 
All properties and OPS components are within expected ranges.

>  <ADMET_EXT_Hepatotoxic_Applicability#MD>  (2) 
9.92028512160233

>  <ADMET_EXT_Hepatotoxic_Applicability#MDpvalue>  (2) 
0.10655297138239

>  <ADMET_Absorption_Level>  (2) 
0

>  <ADMET_EXT_PPB>  (2) 
-12.952497563311

>  <ADMET_EXT_PPB#Prediction>  (2) 
false

>  <ADMET_EXT_PPB_Applicability>  (2) 
All properties and OPS components are within expected ranges.

>  <ADMET_EXT_PPB_Applicability#MD>  (2) 
15.0384326856778

>  <ADMET_EXT_PPB_Applicability#MDpvalue>  (2) 
5.40403179135333e-07

>  <ADMET_AlogP98>  (2) 
2.881

>  <ADMET_PSA_2D>  (2) 
80.85

$$$$
STOCK6S-06222
     RDKit          3D

 29 32  0  0  0  0  0  0  0  0999 V2000
    1.3323   -7.5659    0.0745 N   0  0  0  0  0  0  0  0  0  0  0  0
    0.2498   -8.3393    0.0501 C   0  0  0  0  0  0  0  0  0  0  0  0
    0.3803   -9.8038   -0.0069 C   0  0  0  0  0  0  0  0  0  0  0  0
    1.5865  -10.3739   -0.0399 N   0  0  0  0  0  0  0  0  0  0  0  0
    6.3388   -7.1396    0.0171 C   0  0  0  0  0  0  0  0  0  0  0  0
    6.4734   -5.6854    0.1293 N   0  0  0  0  0  0  0  0  0  0  0  0
    2.6000   -8.1393    0.0415 C   0  0  0  0  0  0  0  0  0  0  0  0
    5.0401   -7.9534    0.0191 C   0  0  0  0  0  0  0  0  0  0  0  0
    2.7336   -9.5801   -0.0216 C   0  0  0  0  0  0  0  0  0  0  0  0
    3.6811   -7.3674    0.0632 C   0  0  0  0  0  0  0  0  0  0  0  0
    6.8530   -2.8459    0.2133 N   0  0  0  0  0  0  0  0  0  0  0  0
   -0.6339  -10.5089   -0.0244 O   0  0  0  0  0  0  0  0  0  0  0  0
   -0.8735   -7.8230    0.0760 O   0  0  0  0  0  0  0  0  0  0  0  0
    7.3841   -7.7789   -0.1461 O   0  0  0  0  0  0  0  0  0  0  0  0
    8.1709   -0.7423   -0.0634 C   0  0  0  0  0  0  0  0  0  0  0  0
    7.8231   -5.1292    0.0556 C   0  0  0  0  0  0  0  0  0  0  0  0
    5.3575   -4.7961    0.4164 C   0  0  0  0  0  0  0  0  0  0  0  0
    5.1453   -9.2826   -0.0469 C   0  0  0  0  0  0  0  0  0  0  0  0
    3.9439  -10.1335   -0.0632 C   0  0  0  0  0  0  0  0  0  0  0  0
    8.1694    0.5814   -0.2251 C   0  0  0  0  0  0  0  0  0  0  0  0
    7.8464   -3.6694   -0.4859 C   0  0  0  0  0  0  0  0  0  0  0  0
    5.5456   -3.3851   -0.1388 C   0  0  0  0  0  0  0  0  0  0  0  0
    6.8691   -1.4595   -0.2900 C   0  0  0  0  0  0  0  0  0  0  0  0
    9.3723    1.4009   -0.0657 C   0  0  0  0  0  0  0  0  0  0  0  0
   10.5563    0.8394    0.1733 C   0  0  0  0  0  0  0  0  0  0  0  0
    9.2634    2.8590   -0.1842 C   0  0  0  0  0  0  0  0  0  0  0  0
   10.3445    3.6246   -0.0531 C   0  0  0  0  0  0  0  0  0  0  0  0
   11.7485    1.6851    0.3169 C   0  0  0  0  0  0  0  0  0  0  0  0
   11.6465    3.0096    0.2084 C   0  0  0  0  0  0  0  0  0  0  0  0
  2  1  1  0
  3  2  1  0
  4  9  1  0
  5  8  1  0
  6  5  1  0
  7  1  1  0
  8 10  2  0
  9  7  2  0
 10  7  1  0
 11 22  1  0
 12  3  2  0
 13  2  2  0
 14  5  2  0
 15 23  1  0
 16  6  1  0
 17  6  1  0
 18  8  1  0
 19  9  1  0
 20 15  2  0
 21 16  1  0
 22 17  1  0
 23 11  1  0
 24 20  1  0
 25 24  2  0
 26 24  1  0
 27 26  2  0
 28 25  1  0
 29 27  1  0
 18 19  2  0
  4  3  1  0
 11 21  1  0
 29 28  2  0
M  END
>  <Name>  (3) 
STOCK6S-06222

>  <id>  (3) 
STOCK6S-06222

>  <index>  (3) 
SC

>  <donors>  (3) 
2

>  <acceptors>  (3) 
7

>  <rotatable>  (3) 
5

>  <clogp>  (3) 
1.352

>  <rings>  (3) 
4

>  <tpsa>  (3) 
89.27

>  <iupac_name>  (3) 
(E)-6-(4-cinnamylpiperazine-1-carbonyl)quinoxaline-2,3(1H,4H)-dione

>  <Num_H_Acceptors_Lipinski>  (3) 
7

>  <Num_H_Donors_Lipinski>  (3) 
2

>  <Molecular_Weight>  (3) 
390.43508

>  <ALogP>  (3) 
1.473

>  <Num_RotatableBonds>  (3) 
4

>  <Molecular_PolarSurfaceArea>  (3) 
81.75

>  <Num_H_Acceptors>  (3) 
4

>  <Num_H_Donors>  (3) 
2

>  <ADMET_Solubility>  (3) 
-3.027

>  <ADMET_Solubility_Level>  (3) 
3

>  <ADMET_Unknown_AlogP98>  (3) 
0

>  <ADMET_BBB>  (3) 
-1.031

>  <ADMET_BBB_Level>  (3) 
3

>  <ADMET_EXT_CYP2D6>  (3) 
-9.90555484852744

>  <ADMET_EXT_CYP2D6#Prediction>  (3) 
false

>  <ADMET_EXT_CYP2D6_Applicability>  (3) 
All properties and OPS components are within expected ranges.

>  <ADMET_EXT_CYP2D6_Applicability#MD>  (3) 
13.5272236095514

>  <ADMET_EXT_CYP2D6_Applicability#MDpvalue>  (3) 
8.5364771103476e-05

>  <ADMET_EXT_Hepatotoxic>  (3) 
-5.76891090330813

>  <ADMET_EXT_Hepatotoxic#Prediction>  (3) 
false

>  <ADMET_EXT_Hepatotoxic_Applicability>  (3) 
All properties and OPS components are within expected ranges.

>  <ADMET_EXT_Hepatotoxic_Applicability#MD>  (3) 
9.53220288710731

>  <ADMET_EXT_Hepatotoxic_Applicability#MDpvalue>  (3) 
0.219610312011483

>  <ADMET_Absorption_Level>  (3) 
0

>  <ADMET_EXT_PPB>  (3) 
4.63549957091388

>  <ADMET_EXT_PPB#Prediction>  (3) 
true

>  <ADMET_EXT_PPB_Applicability>  (3) 
All properties and OPS components are within expected ranges.

>  <ADMET_EXT_PPB_Applicability#MD>  (3) 
14.841547079191

>  <ADMET_EXT_PPB_Applicability#MDpvalue>  (3) 
1.59215701671841e-06

>  <ADMET_AlogP98>  (3) 
1.473

>  <ADMET_PSA_2D>  (3) 
84.227

$$$$
STOCK6S-07658
     RDKit          3D

 27 29  0  0  0  0  0  0  0  0999 V2000
    2.2607   -0.7928   -0.0002 N   0  0  0  0  0  0  0  0  0  0  0  0
    2.9789   -1.8617   -0.0001 C   0  0  0  0  0  0  0  0  0  0  0  0
    2.1477   -2.9916    0.0001 N   0  0  0  0  0  0  0  0  0  0  0  0
    0.9032   -1.2365   -0.0002 C   0  0  0  0  0  0  0  0  0  0  0  0
    0.8706   -2.5457    0.0000 C   0  0  0  0  0  0  0  0  0  0  0  0
    8.7814    0.3798    0.0002 C   0  0  0  0  0  0  0  0  0  0  0  0
    7.3155    0.4797   -0.0001 C   0  0  0  0  0  0  0  0  0  0  0  0
   -0.3200   -0.4432   -0.0003 C   0  0  0  0  0  0  0  0  0  0  0  0
   -0.3559   -3.2986    0.0001 C   0  0  0  0  0  0  0  0  0  0  0  0
    4.4936   -1.9185    0.0000 C   0  0  0  0  0  0  0  0  0  0  0  0
    9.4841   -0.7823    0.0007 O   0  0  0  0  0  0  0  0  0  0  0  0
   -2.9479    0.8913   -0.0004 C   0  0  0  0  0  0  0  0  0  0  0  0
   -2.7551   -0.4373   -0.0003 N   0  0  0  0  0  0  0  0  0  0  0  0
   -1.4911   -1.1037   -0.0002 C   0  0  0  0  0  0  0  0  0  0  0  0
    9.6028    1.4215    0.0001 C   0  0  0  0  0  0  0  0  0  0  0  0
    6.7798    1.5930   -0.0006 O   0  0  0  0  0  0  0  0  0  0  0  0
   10.8230   -0.4650    0.0009 C   0  0  0  0  0  0  0  0  0  0  0  0
   10.9462    0.8642    0.0005 C   0  0  0  0  0  0  0  0  0  0  0  0
   -2.0083    1.6945   -0.0005 O   0  0  0  0  0  0  0  0  0  0  0  0
    6.5597   -0.6183    0.0001 N   0  0  0  0  0  0  0  0  0  0  0  0
   -1.4979   -2.6052    0.0000 C   0  0  0  0  0  0  0  0  0  0  0  0
    5.1163   -0.5062   -0.0002 C   0  0  0  0  0  0  0  0  0  0  0  0
    2.5691   -4.3627    0.0003 C   0  0  0  0  0  0  0  0  0  0  0  0
   -4.3585    1.4125   -0.0003 C   0  0  0  0  0  0  0  0  0  0  0  0
   -4.3499    2.9517   -0.0002 C   0  0  0  0  0  0  0  0  0  0  0  0
   -5.8007    3.4701   -0.0001 C   0  0  0  0  0  0  0  0  0  0  0  0
   -5.7977    5.0098    0.0001 C   0  0  0  0  0  0  0  0  0  0  0  0
  2  1  2  0
  3  2  1  0
  4  1  1  0
  5  4  2  0
  6  7  1  0
  7 20  1  0
  8  4  1  0
  9  5  1  0
 10  2  1  0
 11  6  1  0
 12 13  1  0
 13 14  1  0
 14  8  2  0
 15  6  2  0
 16  7  2  0
 17 11  1  0
 18 15  1  0
 19 12  2  0
 20 22  1  0
 21 14  1  0
 22 10  1  0
 23  3  1  0
 24 12  1  0
 25 24  1  0
 26 25  1  0
 27 26  1  0
  3  5  1  0
 21  9  2  0
 18 17  2  0
M  END
>  <Name>  (4) 
STOCK6S-07658

>  <id>  (4) 
STOCK6S-07658

>  <index>  (4) 
SC

>  <donors>  (4) 
2

>  <acceptors>  (4) 
7

>  <rotatable>  (4) 
10

>  <clogp>  (4) 
2.579

>  <rings>  (4) 
3

>  <tpsa>  (4) 
89.16

>  <iupac_name>  (4) 
N-(2-(1-methyl-5-pentanamido-1H-benzo[d]imidazol-2-yl)ethyl)furan-2-carboxamide

>  <Num_H_Acceptors_Lipinski>  (4) 
7

>  <Num_H_Donors_Lipinski>  (4) 
2

>  <Molecular_Weight>  (4) 
368.42956

>  <ALogP>  (4) 
2.879

>  <Num_RotatableBonds>  (4) 
8

>  <Molecular_PolarSurfaceArea>  (4) 
89.16

>  <Num_H_Acceptors>  (4) 
3

>  <Num_H_Donors>  (4) 
2

>  <ADMET_Solubility>  (4) 
-3.89

>  <ADMET_Solubility_Level>  (4) 
3

>  <ADMET_Unknown_AlogP98>  (4) 
0

>  <ADMET_BBB>  (4) 
-0.678

>  <ADMET_BBB_Level>  (4) 
3

>  <ADMET_EXT_CYP2D6>  (4) 
-9.79035612436985

>  <ADMET_EXT_CYP2D6#Prediction>  (4) 
false

>  <ADMET_EXT_CYP2D6_Applicability>  (4) 
All properties and OPS components are within expected ranges.

>  <ADMET_EXT_CYP2D6_Applicability#MD>  (4) 
15.4705980807307

>  <ADMET_EXT_CYP2D6_Applicability#MDpvalue>  (4) 
5.96049651605219e-07

>  <ADMET_EXT_Hepatotoxic>  (4) 
-5.73067827811065

>  <ADMET_EXT_Hepatotoxic#Prediction>  (4) 
false

>  <ADMET_EXT_Hepatotoxic_Applicability>  (4) 
All properties and OPS components are within expected ranges.

>  <ADMET_EXT_Hepatotoxic_Applicability#MD>  (4) 
12.2442752620605

>  <ADMET_EXT_Hepatotoxic_Applicability#MDpvalue>  (4) 
5.80766833456133e-05

>  <ADMET_Absorption_Level>  (4) 
0

>  <ADMET_EXT_PPB>  (4) 
-5.75596472044524

>  <ADMET_EXT_PPB#Prediction>  (4) 
false

>  <ADMET_EXT_PPB_Applicability>  (4) 
All properties and OPS components are within expected ranges.

>  <ADMET_EXT_PPB_Applicability#MD>  (4) 
15.1598468890052

>  <ADMET_EXT_PPB_Applicability#MDpvalue>  (4) 
2.72464916300296e-07

>  <ADMET_AlogP98>  (4) 
2.879

>  <ADMET_PSA_2D>  (4) 
89.385

$$$$
STOCK6S-14036
     RDKit          3D

 21 23  0  0  0  0  0  0  0  0999 V2000
    6.1123   -9.2418    0.0002 N   0  0  0  0  0  0  0  0  0  0  0  0
    6.0847  -10.5600    0.0000 C   0  0  0  0  0  0  0  0  0  0  0  0
    4.8888  -10.9662    0.0001 N   0  0  0  0  0  0  0  0  0  0  0  0
    7.2429   -8.5649    0.0003 C   0  0  0  0  0  0  0  0  0  0  0  0
    8.5365   -9.3031    0.0000 C   0  0  0  0  0  0  0  0  0  0  0  0
    4.8751   -8.7604    0.0004 N   0  0  0  0  0  0  0  0  0  0  0  0
    7.2191  -11.3171   -0.0002 N   0  0  0  0  0  0  0  0  0  0  0  0
    4.1106   -9.7869    0.0003 C   0  0  0  0  0  0  0  0  0  0  0  0
    8.4809  -10.6773   -0.0002 C   0  0  0  0  0  0  0  0  0  0  0  0
    7.2299   -7.3288    0.0005 O   0  0  0  0  0  0  0  0  0  0  0  0
    2.5842   -9.7018    0.0004 C   0  0  0  0  0  0  0  0  0  0  0  0
    9.8051   -8.3502    0.0001 C   0  0  0  0  0  0  0  0  0  0  0  0
    9.6635  -11.6213   -0.0004 C   0  0  0  0  0  0  0  0  0  0  0  0
    1.8247  -11.0344    0.0001 C   0  0  0  0  0  0  0  0  0  0  0  0
   12.1852   -7.7978   -0.0002 O   0  0  0  0  0  0  0  0  0  0  0  0
   11.2655   -8.8911   -0.0004 C   0  0  0  0  0  0  0  0  0  0  0  0
    0.4920  -11.0063    0.0002 C   0  0  0  0  0  0  0  0  0  0  0  0
    2.5101  -12.3360   -0.0002 C   0  0  0  0  0  0  0  0  0  0  0  0
   -0.2782  -12.2545   -0.0001 C   0  0  0  0  0  0  0  0  0  0  0  0
    1.8116  -13.4695   -0.0004 C   0  0  0  0  0  0  0  0  0  0  0  0
    0.3511  -13.4277   -0.0004 C   0  0  0  0  0  0  0  0  0  0  0  0
  2  1  1  0
  3  2  2  0
  4  1  1  0
  5  4  1  0
  6  1  1  0
  7  2  1  0
  8  6  2  0
  9  5  2  0
 10  4  2  0
 11  8  1  0
 12  5  1  0
 13  9  1  0
 14 11  1  0
 15 16  1  0
 16 12  1  0
 17 14  2  0
 18 14  1  0
 19 17  1  0
 20 18  2  0
 21 20  1  0
  8  3  1  0
  7  9  1  0
 21 19  2  0
M  END
>  <Name>  (5) 
STOCK6S-14036

>  <id>  (5) 
STOCK6S-14036

>  <index>  (5) 
RSC

>  <donors>  (5) 
2

>  <acceptors>  (5) 
6

>  <rotatable>  (5) 
4

>  <clogp>  (5) 
-0.613

>  <rings>  (5) 
3

>  <tpsa>  (5) 
83.28

>  <iupac_name>  (5) 
2-benzyl-6-(2-hydroxyethyl)-5-methyl-[1,2,4]triazolo[1,5-a]pyrimidin-7(4H)-one

>  <Num_H_Acceptors_Lipinski>  (5) 
6

>  <Num_H_Donors_Lipinski>  (5) 
2

>  <Molecular_Weight>  (5) 
284.31314

>  <ALogP>  (5) 
1.61

>  <Num_RotatableBonds>  (5) 
4

>  <Molecular_PolarSurfaceArea>  (5) 
80.04

>  <Num_H_Acceptors>  (5) 
5

>  <Num_H_Donors>  (5) 
2

>  <ADMET_Solubility>  (5) 
-2.656

>  <ADMET_Solubility_Level>  (5) 
3

>  <ADMET_Unknown_AlogP98>  (5) 
0

>  <ADMET_BBB>  (5) 
-0.903

>  <ADMET_BBB_Level>  (5) 
3

>  <ADMET_EXT_CYP2D6>  (5) 
-3.93877640500463

>  <ADMET_EXT_CYP2D6#Prediction>  (5) 
false

>  <ADMET_EXT_CYP2D6_Applicability>  (5) 
All properties and OPS components are within expected ranges.
Unknown FCFP_2 feature: 193617513: [*]=CC(=O)n(:[*]):[*]
Unknown FCFP_2 feature: 436975416: [*]CC(=C([*])[*])N[*]

>  <ADMET_EXT_CYP2D6_Applicability#MD>  (5) 
12.3599942173984

>  <ADMET_EXT_CYP2D6_Applicability#MDpvalue>  (5) 
0.00133453740500614

>  <ADMET_EXT_Hepatotoxic>  (5) 
-4.4324430721536

>  <ADMET_EXT_Hepatotoxic#Prediction>  (5) 
false

>  <ADMET_EXT_Hepatotoxic_Applicability>  (5) 
All properties and OPS components are within expected ranges.
Unknown FCFP_2 feature: 193617513: [*]=CC(=O)n(:[*]):[*]

>  <ADMET_EXT_Hepatotoxic_Applicability#MD>  (5) 
12.0863926104961

>  <ADMET_EXT_Hepatotoxic_Applicability#MDpvalue>  (5) 
0.000113216166135762

>  <ADMET_Absorption_Level>  (5) 
0

>  <ADMET_EXT_PPB>  (5) 
-0.146481252397697

>  <ADMET_EXT_PPB#Prediction>  (5) 
true

>  <ADMET_EXT_PPB_Applicability>  (5) 
All properties and OPS components are within expected ranges.
Unknown FCFP_2 feature: 193617513: [*]=CC(=O)n(:[*]):[*]

>  <ADMET_EXT_PPB_Applicability#MD>  (5) 
13.8848037450033

>  <ADMET_EXT_PPB_Applicability#MDpvalue>  (5) 
0.000174670520195218

>  <ADMET_AlogP98>  (5) 
1.61

>  <ADMET_PSA_2D>  (5) 
78.796

$$$$
STOCK6S-15428
     RDKit          3D

 28 31  0  0  0  0  0  0  0  0999 V2000
    4.0739   -3.0231   -0.0469 C   0  0  0  0  0  0  0  0  0  0  0  0
    6.3621   -1.5471    0.0634 C   0  0  0  0  0  0  0  0  0  0  0  0
    5.3117   -3.6857    0.0897 N   0  0  0  0  0  0  0  0  0  0  0  0
    4.0216   -1.7581   -0.1283 N   0  0  0  0  0  0  0  0  0  0  0  0
    6.4015   -3.0221    0.1363 C   0  0  0  0  0  0  0  0  0  0  0  0
    7.6512   -0.7718    0.1792 C   0  0  0  0  0  0  0  0  0  0  0  0
    5.1575   -0.9647   -0.0730 C   0  0  0  0  0  0  0  0  0  0  0  0
    2.8651   -3.7288   -0.0931 N   0  0  0  0  0  0  0  0  0  0  0  0
    8.8998   -2.8859   -0.2411 C   0  0  2  0  0  0  0  0  0  0  0  0
    8.9411   -1.4908    0.3769 C   0  0  0  0  0  0  0  0  0  0  0  0
    7.7234   -3.7559    0.2789 C   0  0  0  0  0  0  0  0  0  0  0  0
   10.2507   -3.6278   -0.1348 C   0  0  0  0  0  0  0  0  0  0  0  0
    0.3744   -5.0701   -0.2610 N   0  0  0  0  0  0  0  0  0  0  0  0
    7.6816    0.4629    0.2063 O   0  0  0  0  0  0  0  0  0  0  0  0
    2.8576   -5.1805   -0.0783 C   0  0  0  0  0  0  0  0  0  0  0  0
    1.6482   -2.9677   -0.3049 C   0  0  0  0  0  0  0  0  0  0  0  0
   11.5861   -2.9181   -0.1455 C   0  0  0  0  0  0  0  0  0  0  0  0
    1.4977   -5.7550    0.4013 C   0  0  0  0  0  0  0  0  0  0  0  0
    0.3932   -3.6893    0.2066 C   0  0  0  0  0  0  0  0  0  0  0  0
   11.7002   -1.5328   -0.2681 O   0  0  0  0  0  0  0  0  0  0  0  0
    4.9565    0.5277   -0.1515 C   0  0  0  0  0  0  0  0  0  0  0  0
   -0.9024   -5.6778    0.1599 C   0  0  0  0  0  0  0  0  0  0  0  0
   -2.2384   -7.6998    0.0935 O   0  0  0  0  0  0  0  0  0  0  0  0
   10.2380   -4.9576   -0.0373 C   0  0  0  0  0  0  0  0  0  0  0  0
   12.7088   -3.6283   -0.0499 C   0  0  0  0  0  0  0  0  0  0  0  0
   -0.9848   -7.1422   -0.3114 C   0  0  0  0  0  0  0  0  0  0  0  0
   11.4904   -5.7135    0.0671 C   0  0  0  0  0  0  0  0  0  0  0  0
   12.6613   -5.0814    0.0645 C   0  0  0  0  0  0  0  0  0  0  0  0
  2  7  1  0
  3  1  2  0
  4  1  1  0
  5  3  1  0
  6  2  1  0
  7  4  2  0
  8  1  1  0
  9 11  1  0
 10  6  1  0
 11  5  1  0
  9 12  1  1
 13 19  1  0
 14  6  2  0
 15  8  1  0
 16  8  1  0
 17 12  2  0
 18 15  1  0
 19 16  1  0
 20 17  1  0
 21  7  1  0
 22 13  1  0
 23 26  1  0
 24 12  1  0
 25 17  1  0
 26 22  1  0
 27 24  2  0
 28 27  1  0
  5  2  2  0
 13 18  1  0
  9 10  1  0
 28 25  2  0
M  END
>  <Name>  (6) 
STOCK6S-15428

>  <id>  (6) 
STOCK6S-15428

>  <index>  (6) 
SC

>  <donors>  (6) 
2

>  <acceptors>  (6) 
7

>  <rotatable>  (6) 
4

>  <clogp>  (6) 
1.351

>  <rings>  (6) 
4

>  <tpsa>  (6) 
89.79

>  <iupac_name>  (6) 
2-(4-(2-hydroxyethyl)piperazin-1-yl)-7-(2-hydroxyphenyl)-4-methyl-7,8-dihydroquinazolin-5(6H)-one

>  <Num_H_Acceptors_Lipinski>  (6) 
7

>  <Num_H_Donors_Lipinski>  (6) 
2

>  <Molecular_Weight>  (6) 
382.45614

>  <ALogP>  (6) 
2.005

>  <Num_RotatableBonds>  (6) 
4

>  <Molecular_PolarSurfaceArea>  (6) 
89.79

>  <Num_H_Acceptors>  (6) 
7

>  <Num_H_Donors>  (6) 
2

>  <ADMET_Solubility>  (6) 
-3.116

>  <ADMET_Solubility_Level>  (6) 
3

>  <ADMET_Unknown_AlogP98>  (6) 
0

>  <ADMET_BBB>  (6) 
-0.929

>  <ADMET_BBB_Level>  (6) 
3

>  <ADMET_EXT_CYP2D6>  (6) 
-0.492420486758237

>  <ADMET_EXT_CYP2D6#Prediction>  (6) 
false

>  <ADMET_EXT_CYP2D6_Applicability>  (6) 
All properties and OPS components are within expected ranges.
Unknown FCFP_2 feature: -1410079687: [*]S[c]1:n:[*]:[*]:n:1

>  <ADMET_EXT_CYP2D6_Applicability#MD>  (6) 
16.9679383454173

>  <ADMET_EXT_CYP2D6_Applicability#MDpvalue>  (6) 
1.11952577206396e-08

>  <ADMET_EXT_Hepatotoxic>  (6) 
-4.59312617994202

>  <ADMET_EXT_Hepatotoxic#Prediction>  (6) 
false

>  <ADMET_EXT_Hepatotoxic_Applicability>  (6) 
All properties and OPS components are within expected ranges.

>  <ADMET_EXT_Hepatotoxic_Applicability#MD>  (6) 
14.3986566909195

>  <ADMET_EXT_Hepatotoxic_Applicability#MDpvalue>  (6) 
1.04271177771651e-09

>  <ADMET_Absorption_Level>  (6) 
0

>  <ADMET_EXT_PPB>  (6) 
5.53462745128239

>  <ADMET_EXT_PPB#Prediction>  (6) 
true

>  <ADMET_EXT_PPB_Applicability>  (6) 
All properties and OPS components are within expected ranges.

>  <ADMET_EXT_PPB_Applicability#MD>  (6) 
15.5115378654623

>  <ADMET_EXT_PPB_Applicability#MDpvalue>  (6) 
3.46863965861734e-08

>  <ADMET_AlogP98>  (6) 
2.005

>  <ADMET_PSA_2D>  (6) 
88.158

$$$$
STOCK6S-21920
     RDKit          3D

 32 36  0  0  0  0  0  0  0  0999 V2000
   -0.1833   -4.9542    0.0542 C   0  0  0  0  0  0  0  0  0  0  0  0
   -0.3750   -4.1292   -0.0292 C   0  0  0  0  0  0  0  0  0  0  0  0
   -0.8625   -5.3500    0.4000 C   0  0  0  0  0  0  0  0  0  0  0  0
   -1.1833   -4.0042    0.2542 N   0  0  0  0  0  0  0  0  0  0  0  0
    0.5250   -5.4042   -0.1167 C   0  0  0  0  0  0  0  0  0  0  0  0
    1.2125   -5.0167   -0.4625 C   0  0  0  0  0  0  0  0  0  0  0  0
    0.5542   -6.2542    0.0375 C   0  0  0  0  0  0  0  0  0  0  0  0
   -0.1083   -5.8042    0.2000 O   0  0  0  0  0  0  0  0  0  0  0  0
   -1.4833   -4.7625    0.5167 C   0  0  0  0  0  0  0  0  0  0  0  0
   -0.8458   -6.2000    0.5542 C   0  0  0  0  0  0  0  0  0  0  0  0
    4.0750   -4.1542    0.0000 N   0  0  0  0  0  0  0  0  0  0  0  0
    1.9292   -5.4167    0.0000 N   0  0  0  0  0  0  0  0  0  0  0  0
   -0.1333   -6.6500    0.3792 C   0  0  0  0  0  0  0  0  0  0  0  0
    4.0875   -4.9667    0.0000 C   0  0  0  0  0  0  0  0  0  0  0  0
    3.3542   -3.7417    0.0000 C   0  0  0  0  0  0  0  0  0  0  0  0
   -1.6083   -3.2667    0.2667 C   0  0  0  0  0  0  0  0  0  0  0  0
    2.6417   -5.0000    0.0000 C   0  0  0  0  0  0  0  0  0  0  0  0
    0.1417   -3.5167   -0.3542 O   0  0  0  0  0  0  0  0  0  0  0  0
    2.6417   -4.1667    0.0000 C   0  0  0  0  0  0  0  0  0  0  0  0
    3.3750   -5.3917    0.0000 C   0  0  0  0  0  0  0  0  0  0  0  0
    1.1875   -4.1750   -0.6250 O   0  0  0  0  0  0  0  0  0  0  0  0
   -1.2208   -2.5417   -0.0292 C   0  0  0  0  0  0  0  0  0  0  0  0
   -2.4083   -3.2250    0.5667 C   0  0  0  0  0  0  0  0  0  0  0  0
   -2.4458   -1.7500    0.2875 C   0  0  0  0  0  0  0  0  0  0  0  0
   -1.6375   -1.7917   -0.0125 C   0  0  0  0  0  0  0  0  0  0  0  0
   -2.8333   -2.4792    0.5792 C   0  0  0  0  0  0  0  0  0  0  0  0
   -2.8708   -1.0000    0.3000 O   0  0  0  0  0  0  0  0  0  0  0  0
    3.7667   -3.0250    0.0000 C   0  0  0  0  0  0  0  0  0  0  0  0
    2.9375   -3.0292    0.0000 C   0  0  0  0  0  0  0  0  0  0  0  0
    4.5042   -5.6917    0.0000 C   0  0  0  0  0  0  0  0  0  0  0  0
    4.9167   -4.9667    0.0000 C   0  0  0  0  0  0  0  0  0  0  0  0
   -2.4833   -0.2792    0.0042 C   0  0  0  0  0  0  0  0  0  0  0  0
  2  1  1  0
  3  1  1  0
  4  2  1  0
  5  1  1  0
  6  5  1  0
  7  5  1  0
  3  8  1  0
  9  3  1  0
 10  3  1  0
 11 14  1  0
 12  6  1  0
 13  7  1  0
 14 20  1  0
 15 19  1  0
 16  4  1  0
 17 12  1  0
 18  2  2  0
 19 17  1  0
 20 17  1  0
 21  6  2  0
 22 16  2  0
 23 16  1  0
 24 26  1  0
 25 22  1  0
 26 23  2  0
 27 24  1  0
 28 15  1  0
 29 15  1  0
 30 14  1  0
 31 14  1  0
 32 27  1  0
  9  4  1  0
  7  8  1  0
 10 13  2  0
 24 25  2  0
 11 15  1  0
M  END
>  <Name>  (7) 
STOCK6S-21920

>  <id>  (7) 
STOCK6S-21920

>  <index>  (7) 
SC

>  <donors>  (7) 
2

>  <acceptors>  (7) 
7

>  <rotatable>  (7) 
5

>  <clogp>  (7) 
3.388

>  <rings>  (7) 
5

>  <tpsa>  (7) 
79.9

>  <iupac_name>  (7) 
(3aS,6R,7aR)-2-(4-methoxyphenyl)-1-oxo-N-(2,2,6,6-tetramethylpiperidin-4-yl)-1,2,3,6,7,7a-hexahydro-3a,6-epoxyisoindole-7-carboxamide

>  <Num_H_Acceptors_Lipinski>  (7) 
7

>  <Num_H_Donors_Lipinski>  (7) 
2

>  <Molecular_Weight>  (7) 
439.54722

>  <ALogP>  (7) 
0.832

>  <Num_RotatableBonds>  (7) 
4

>  <Molecular_PolarSurfaceArea>  (7) 
79.9

>  <Num_H_Acceptors>  (7) 
5

>  <Num_H_Donors>  (7) 
2

>  <ADMET_Solubility>  (7) 
-3.352

>  <ADMET_Solubility_Level>  (7) 
3

>  <ADMET_Unknown_AlogP98>  (7) 
0

>  <ADMET_BBB>  (7) 
-1.185

>  <ADMET_BBB_Level>  (7) 
3

>  <ADMET_EXT_CYP2D6>  (7) 
-9.65782583682064

>  <ADMET_EXT_CYP2D6#Prediction>  (7) 
false

>  <ADMET_EXT_CYP2D6_Applicability>  (7) 
All properties and OPS components are within expected ranges.

>  <ADMET_EXT_CYP2D6_Applicability#MD>  (7) 
15.7474027890583

>  <ADMET_EXT_CYP2D6_Applicability#MDpvalue>  (7) 
2.8742630143259e-07

>  <ADMET_EXT_Hepatotoxic>  (7) 
-6.12482753951937

>  <ADMET_EXT_Hepatotoxic#Prediction>  (7) 
false

>  <ADMET_EXT_Hepatotoxic_Applicability>  (7) 
All properties and OPS components are within expected ranges.

>  <ADMET_EXT_Hepatotoxic_Applicability#MD>  (7) 
13.2687248045233

>  <ADMET_EXT_Hepatotoxic_Applicability#MDpvalue>  (7) 
4.77231465203822e-07

>  <ADMET_Absorption_Level>  (7) 
0

>  <ADMET_EXT_PPB>  (7) 
-4.47683174421937

>  <ADMET_EXT_PPB#Prediction>  (7) 
false

>  <ADMET_EXT_PPB_Applicability>  (7) 
OPS PC28 out of range. Value: 3.5622. Training min, max, SD, explained variance: -3.966, 3.4378, 1.105, 0.0101.

>  <ADMET_EXT_PPB_Applicability#MD>  (7) 
17.9943862561531

>  <ADMET_EXT_PPB_Applicability#MDpvalue>  (7) 
8.90156358213908e-16

>  <ADMET_AlogP98>  (7) 
0.832

>  <ADMET_PSA_2D>  (7) 
81.434

$$$$
STOCK6S-23756
     RDKit          3D

 30 33  0  0  0  0  0  0  0  0999 V2000
    3.3686   -1.9238    0.1589 N   0  0  0  0  0  0  0  0  0  0  0  0
    2.0440   -1.3386    0.0691 C   0  0  0  0  0  0  0  0  0  0  0  0
    5.9435   -3.1576   -0.3885 C   0  0  0  0  0  0  0  0  0  0  0  0
   -1.9839   -3.1293    0.1394 N   0  0  0  0  0  0  0  0  0  0  0  0
   -3.2901   -3.6842    0.0095 C   0  0  0  0  0  0  0  0  0  0  0  0
   -6.9276   -2.9741    0.0093 C   0  0  0  0  0  0  0  0  0  0  0  0
    4.6855   -4.0257   -0.1075 C   0  0  0  0  0  0  0  0  0  0  0  0
    5.4807   -1.9102   -1.1408 C   0  0  0  0  0  0  0  0  0  0  0  0
   -5.7430   -3.5945    0.0139 N   0  0  0  0  0  0  0  0  0  0  0  0
    4.4825   -1.1035   -0.2851 C   0  0  0  0  0  0  0  0  0  0  0  0
    3.6424   -3.2416    0.7409 C   0  0  0  0  0  0  0  0  0  0  0  0
    0.7098   -2.0388    0.4430 C   0  0  0  0  0  0  0  0  0  0  0  0
    6.6581   -2.8490    0.8061 O   0  0  0  0  0  0  0  0  0  0  0  0
    6.9055   -3.8984   -1.1358 O   0  0  0  0  0  0  0  0  0  0  0  0
   -4.5228   -2.8002    0.0532 C   0  0  0  0  0  0  0  0  0  0  0  0
   -1.8271   -1.6972    0.3911 C   0  0  0  0  0  0  0  0  0  0  0  0
   -0.8387   -4.0359    0.1376 C   0  0  0  0  0  0  0  0  0  0  0  0
    1.9701   -0.1898   -0.3810 O   0  0  0  0  0  0  0  0  0  0  0  0
   -3.4207   -4.9037   -0.1429 O   0  0  0  0  0  0  0  0  0  0  0  0
   -6.9647   -1.7388    0.0288 O   0  0  0  0  0  0  0  0  0  0  0  0
   -8.1961   -3.7294   -0.0064 C   0  0  0  0  0  0  0  0  0  0  0  0
   -0.4414   -1.1285   -0.0177 C   0  0  0  0  0  0  0  0  0  0  0  0
    0.4882   -3.3708   -0.3042 C   0  0  0  0  0  0  0  0  0  0  0  0
    7.2569   -4.1198    1.1684 C   0  0  0  0  0  0  0  0  0  0  0  0
    7.3165   -4.8912   -0.1868 C   0  0  0  0  0  0  0  0  0  0  0  0
   -8.1990   -5.1970   -0.0186 C   0  0  0  0  0  0  0  0  0  0  0  0
   -9.3526   -3.0659   -0.0013 C   0  0  0  0  0  0  0  0  0  0  0  0
   -9.3569   -5.8602   -0.0245 C   0  0  0  0  0  0  0  0  0  0  0  0
  -10.6253   -3.7948   -0.0094 C   0  0  0  0  0  0  0  0  0  0  0  0
  -10.6279   -5.1263   -0.0196 C   0  0  0  0  0  0  0  0  0  0  0  0
  2  1  1  0
  3  7  1  0
  4 17  1  0
  5  4  1  0
  6  9  1  0
  7 11  1  0
  8 10  1  0
  9 15  1  0
 10  1  1  0
 11  1  1  0
 12  2  1  0
 13  3  1  0
 14  3  1  0
 15  5  1  0
 16 22  1  0
 17 23  1  0
 18  2  2  0
 19  5  2  0
 20  6  2  0
 21  6  1  0
 22 12  1  0
 23 12  1  0
 24 13  1  0
 25 14  1  0
 26 21  2  0
 27 21  1  0
 28 26  1  0
 29 27  2  0
 30 29  1  0
  8  3  1  0
 16  4  1  0
 25 24  1  0
 28 30  2  0
M  END
>  <Name>  (8) 
STOCK6S-23756

>  <id>  (8) 
STOCK6S-23756

>  <index>  (8) 
SCD

>  <donors>  (8) 
1

>  <acceptors>  (8) 
8

>  <rotatable>  (8) 
7

>  <clogp>  (8) 
-1.453

>  <rings>  (8) 
4

>  <tpsa>  (8) 
88.18

>  <iupac_name>  (8) 
N-(2-(4-(1,4-dioxa-8-azaspiro[4.5]decane-8-carbonyl)piperidin-1-yl)-2-oxoethyl)benzamide

>  <Num_H_Acceptors_Lipinski>  (8) 
8

>  <Num_H_Donors_Lipinski>  (8) 
1

>  <Molecular_Weight>  (8) 
415.48276

>  <ALogP>  (8) 
0.254

>  <Num_RotatableBonds>  (8) 
4

>  <Molecular_PolarSurfaceArea>  (8) 
88.18

>  <Num_H_Acceptors>  (8) 
5

>  <Num_H_Donors>  (8) 
1

>  <ADMET_Solubility>  (8) 
-1.743

>  <ADMET_Solubility_Level>  (8) 
4

>  <ADMET_Unknown_AlogP98>  (8) 
0

>  <ADMET_BBB>  (8) 
-1.488

>  <ADMET_BBB_Level>  (8) 
3

>  <ADMET_EXT_CYP2D6>  (8) 
-11.0225691620892

>  <ADMET_EXT_CYP2D6#Prediction>  (8) 
false

>  <ADMET_EXT_CYP2D6_Applicability>  (8) 
All properties and OPS components are within expected ranges.

>  <ADMET_EXT_CYP2D6_Applicability#MD>  (8) 
14.734558556074

>  <ADMET_EXT_CYP2D6_Applicability#MDpvalue>  (8) 
4.05978545971542e-06

>  <ADMET_EXT_Hepatotoxic>  (8) 
-4.98451729516671

>  <ADMET_EXT_Hepatotoxic#Prediction>  (8) 
false

>  <ADMET_EXT_Hepatotoxic_Applicability>  (8) 
All properties and OPS components are within expected ranges.

>  <ADMET_EXT_Hepatotoxic_Applicability#MD>  (8) 
10.4005266164897

>  <ADMET_EXT_Hepatotoxic_Applicability#MDpvalue>  (8) 
0.0348808014261208

>  <ADMET_Absorption_Level>  (8) 
0

>  <ADMET_EXT_PPB>  (8) 
-4.38457282240103

>  <ADMET_EXT_PPB#Prediction>  (8) 
false

>  <ADMET_EXT_PPB_Applicability>  (8) 
All properties and OPS components are within expected ranges.

>  <ADMET_EXT_PPB_Applicability#MD>  (8) 
13.2253009672616

>  <ADMET_EXT_PPB_Applicability#MDpvalue>  (8) 
0.00252181660875082

>  <ADMET_AlogP98>  (8) 
0.254

>  <ADMET_PSA_2D>  (8) 
89.277

$$$$
STOCK6S-24602
     RDKit          3D

 29 32  0  0  0  0  0  0  0  0999 V2000
    5.3407   -2.6777    0.0327 C   0  0  0  0  0  0  0  0  0  0  0  0
    6.7936   -2.4877    0.0472 C   0  0  0  0  0  0  0  0  0  0  0  0
    7.3486   -1.1541   -0.0098 N   0  0  0  0  0  0  0  0  0  0  0  0
    3.5078   -6.0450    0.0095 C   0  0  0  0  0  0  0  0  0  0  0  0
    4.8288   -4.1526    0.0805 C   0  0  1  0  0  0  0  0  0  0  0  0
    4.9166   -6.4125   -0.0312 C   0  0  0  0  0  0  0  0  0  0  0  0
    4.5582   -1.5861   -0.0203 C   0  0  0  0  0  0  0  0  0  0  0  0
    3.4234   -4.7418    0.0743 C   0  0  0  0  0  0  0  0  0  0  0  0
    5.7040   -5.2757    0.0075 O   0  0  0  0  0  0  0  0  0  0  0  0
    5.1475   -0.2600   -0.0711 C   0  0  0  0  0  0  0  0  0  0  0  0
    6.4601   -0.0708   -0.0702 C   0  0  0  0  0  0  0  0  0  0  0  0
    2.3474   -6.9611   -0.0034 C   0  0  0  0  0  0  0  0  0  0  0  0
    2.1772   -4.1017    0.1351 C   0  0  0  0  0  0  0  0  0  0  0  0
    8.8007   -0.8026    0.0345 C   0  0  0  0  0  0  0  0  0  0  0  0
    7.4991   -3.4949    0.1250 O   0  0  0  0  0  0  0  0  0  0  0  0
    5.3487   -7.5701   -0.0803 O   0  0  0  0  0  0  0  0  0  0  0  0
    1.1008   -6.3401    0.0737 C   0  0  0  0  0  0  0  0  0  0  0  0
    1.0849   -4.8486    0.1393 C   0  0  0  0  0  0  0  0  0  0  0  0
    3.1942   -1.6511   -0.0348 O   0  0  0  0  0  0  0  0  0  0  0  0
   11.1847   -1.3209    0.3727 O   0  0  0  0  0  0  0  0  0  0  0  0
    9.8827   -1.9029    0.2557 C   0  0  2  0  0  0  0  0  0  0  0  0
    2.8124   -8.3629   -0.1046 O   0  0  0  0  0  0  0  0  0  0  0  0
    6.9879    1.3371   -0.1208 C   0  0  0  0  0  0  0  0  0  0  0  0
   -0.3030   -6.8064    0.1212 O   0  0  0  0  0  0  0  0  0  0  0  0
   12.1122   -2.4442    0.2749 C   0  0  0  0  0  0  0  0  0  0  0  0
    1.9969   -9.5111   -0.1915 C   0  0  0  0  0  0  0  0  0  0  0  0
   -0.7563   -8.1388    0.1403 C   0  0  0  0  0  0  0  0  0  0  0  0
   10.0958   -2.8682   -0.9023 C   0  0  0  0  0  0  0  0  0  0  0  0
   11.2593   -3.6170   -0.2840 C   0  0  0  0  0  0  0  0  0  0  0  0
  2  1  1  0
  3  2  1  0
  4  8  2  0
  5  1  1  6
  6  9  1  0
  7  1  2  0
  8  5  1  0
  9  5  1  0
 10  7  1  0
 11 10  2  0
 12  4  1  0
 13  8  1  0
 14  3  1  0
 15  2  2  0
 16  6  2  0
 17 18  1  0
 18 13  2  0
 19  7  1  0
 20 21  1  0
 21 14  1  6
 22 12  1  0
 23 11  1  0
 24 17  1  0
 25 20  1  0
 26 22  1  0
 27 24  1  0
 28 21  1  0
 29 28  1  0
 11  3  1  0
  6  4  1  0
 12 17  2  0
 25 29  1  0
M  END
>  <Name>  (9) 
STOCK6S-24602

>  <id>  (9) 
STOCK6S-24602

>  <index>  (9) 
SC

>  <donors>  (9) 
1

>  <acceptors>  (9) 
8

>  <rotatable>  (9) 
5

>  <clogp>  (9) 
0.761

>  <rings>  (9) 
4

>  <tpsa>  (9) 
96.22

>  <iupac_name>  (9) 
3-(4,5-dimethoxy-3-oxo-1,3-dihydroisobenzofuran-1-yl)-4-hydroxy-6-methyl-1-((tetrahydrofuran-2-yl)methyl)pyridin-2(1H)-one

>  <Num_H_Acceptors_Lipinski>  (9) 
8

>  <Num_H_Donors_Lipinski>  (9) 
1

>  <Molecular_Weight>  (9) 
401.40982

>  <ALogP>  (9) 
1.365

>  <Num_RotatableBonds>  (9) 
5

>  <Molecular_PolarSurfaceArea>  (9) 
94.53

>  <Num_H_Acceptors>  (9) 
7

>  <Num_H_Donors>  (9) 
1

>  <ADMET_Solubility>  (9) 
-2.93

>  <ADMET_Solubility_Level>  (9) 
3

>  <ADMET_Unknown_AlogP98>  (9) 
0

>  <ADMET_BBB>  (9) 
-1.227

>  <ADMET_BBB_Level>  (9) 
3

>  <ADMET_EXT_CYP2D6>  (9) 
-5.8505047713175

>  <ADMET_EXT_CYP2D6#Prediction>  (9) 
false

>  <ADMET_EXT_CYP2D6_Applicability>  (9) 
All properties and OPS components are within expected ranges.

>  <ADMET_EXT_CYP2D6_Applicability#MD>  (9) 
19.3554126843129

>  <ADMET_EXT_CYP2D6_Applicability#MDpvalue>  (9) 
1.93472780495595e-11

>  <ADMET_EXT_Hepatotoxic>  (9) 
-7.25459168873539

>  <ADMET_EXT_Hepatotoxic#Prediction>  (9) 
false

>  <ADMET_EXT_Hepatotoxic_Applicability>  (9) 
All properties and OPS components are within expected ranges.

>  <ADMET_EXT_Hepatotoxic_Applicability#MD>  (9) 
13.1048208816315

>  <ADMET_EXT_Hepatotoxic_Applicability#MDpvalue>  (9) 
1.08348464980833e-06

>  <ADMET_Absorption_Level>  (9) 
0

>  <ADMET_EXT_PPB>  (9) 
-2.26260308457802

>  <ADMET_EXT_PPB#Prediction>  (9) 
false

>  <ADMET_EXT_PPB_Applicability>  (9) 
All properties and OPS components are within expected ranges.

>  <ADMET_EXT_PPB_Applicability#MD>  (9) 
14.9109407541292

>  <ADMET_EXT_PPB_Applicability#MDpvalue>  (9) 
1.09255369943459e-06

>  <ADMET_AlogP98>  (9) 
1.365

>  <ADMET_PSA_2D>  (9) 
94.489

$$$$
STOCK6S-24604
     RDKit          3D

 29 31  0  0  0  0  0  0  0  0999 V2000
    2.2231   -3.4819   -0.9336 S   0  0  0  0  0  0  0  0  0  0  0  0
    3.4203   -2.9566    0.2385 N   0  0  0  0  0  0  0  0  0  0  0  0
    5.9108   -2.8855    0.5789 C   0  0  2  0  0  0  0  0  0  0  0  0
    7.2392   -3.4991    0.1522 C   0  0  0  0  0  0  0  0  0  0  0  0
    4.7420   -3.4279   -0.2709 C   0  0  0  0  0  0  0  0  0  0  0  0
    0.7133   -4.2094   -0.2966 C   0  0  0  0  0  0  0  0  0  0  0  0
    1.8932   -2.3134   -1.8358 O   0  0  0  0  0  0  0  0  0  0  0  0
    2.8957   -4.5790   -1.7392 O   0  0  0  0  0  0  0  0  0  0  0  0
    8.3986   -2.8524    0.2983 N   0  0  0  0  0  0  0  0  0  0  0  0
    7.2461   -4.6519   -0.3067 O   0  0  0  0  0  0  0  0  0  0  0  0
    9.6444   -3.5087   -0.0808 C   0  0  0  0  0  0  0  0  0  0  0  0
   -0.4406   -3.5351   -0.3565 C   0  0  0  0  0  0  0  0  0  0  0  0
    0.7096   -5.6068    0.1518 C   0  0  0  0  0  0  0  0  0  0  0  0
   10.8665   -2.6548    0.3540 C   0  0  1  0  0  0  0  0  0  0  0  0
   12.2037   -3.3477    0.1556 C   0  0  0  0  0  0  0  0  0  0  0  0
    3.3973   -1.4602    0.2479 C   0  0  0  0  0  0  0  0  0  0  0  0
   -1.6999   -5.4729    0.4267 C   0  0  0  0  0  0  0  0  0  0  0  0
   -0.4311   -6.2071    0.4916 C   0  0  0  0  0  0  0  0  0  0  0  0
   -1.7006   -4.1970    0.0378 C   0  0  0  0  0  0  0  0  0  0  0  0
    5.9216   -1.3529    0.5723 C   0  0  0  0  0  0  0  0  0  0  0  0
   10.8746   -1.3405   -0.2075 O   0  0  0  0  0  0  0  0  0  0  0  0
   -2.8990   -6.1401    0.7664 O   0  0  0  0  0  0  0  0  0  0  0  0
    4.5502   -0.8770    1.1163 C   0  0  0  0  0  0  0  0  0  0  0  0
   13.4296   -2.5466    0.0299 C   0  0  0  0  0  0  0  0  0  0  0  0
   12.2794   -4.6793    0.1158 C   0  0  0  0  0  0  0  0  0  0  0  0
   -4.0449   -5.2861    0.6119 C   0  0  0  0  0  0  0  0  0  0  0  0
   14.6107   -3.1452   -0.1230 C   0  0  0  0  0  0  0  0  0  0  0  0
   13.5826   -5.3375   -0.0582 C   0  0  0  0  0  0  0  0  0  0  0  0
   14.6914   -4.6072   -0.1698 C   0  0  0  0  0  0  0  0  0  0  0  0
  2  1  1  0
  3  5  1  0
  3  4  1  6
  5  2  1  0
  6  1  1  0
  7  1  2  0
  8  1  2  0
  9  4  1  0
 10  4  2  0
 11  9  1  0
 12  6  2  0
 13  6  1  0
 14 11  1  0
 15 14  1  0
 16  2  1  0
 17 18  1  0
 18 13  2  0
 19 12  1  0
 20 23  1  0
 14 21  1  6
 22 17  1  0
 23 16  1  0
 24 15  2  0
 25 15  1  0
 26 22  1  0
 27 24  1  0
 28 25  2  0
 29 28  1  0
 19 17  2  0
  3 20  1  0
 29 27  2  0
M  END
>  <Name>  (10) 
STOCK6S-24604

>  <id>  (10) 
STOCK6S-24604

>  <index>  (10) 
SCD

>  <donors>  (10) 
2

>  <acceptors>  (10) 
7

>  <rotatable>  (10) 
8

>  <clogp>  (10) 
2.645

>  <rings>  (10) 
3

>  <tpsa>  (10) 
95.94

>  <iupac_name>  (10) 
N-(2-hydroxy-2-phenylethyl)-1-((4-methoxyphenyl)sulfonyl)piperidine-3-carboxamide

>  <Num_H_Acceptors_Lipinski>  (10) 
7

>  <Num_H_Donors_Lipinski>  (10) 
2

>  <Molecular_Weight>  (10) 
418.50654

>  <ALogP>  (10) 
1.818

>  <Num_RotatableBonds>  (10) 
7

>  <Molecular_PolarSurfaceArea>  (10) 
104.32

>  <Num_H_Acceptors>  (10) 
5

>  <Num_H_Donors>  (10) 
2

>  <ADMET_Solubility>  (10) 
-2.824

>  <ADMET_Solubility_Level>  (10) 
3

>  <ADMET_Unknown_AlogP98>  (10) 
0

>  <ADMET_BBB>  (10) 
-1.14

>  <ADMET_BBB_Level>  (10) 
3

>  <ADMET_EXT_CYP2D6>  (10) 
-12.1354076540319

>  <ADMET_EXT_CYP2D6#Prediction>  (10) 
false

>  <ADMET_EXT_CYP2D6_Applicability>  (10) 
All properties and OPS components are within expected ranges.

>  <ADMET_EXT_CYP2D6_Applicability#MD>  (10) 
9.60693775096953

>  <ADMET_EXT_CYP2D6_Applicability#MDpvalue>  (10) 
0.199552041154534

>  <ADMET_EXT_Hepatotoxic>  (10) 
-5.01693937381401

>  <ADMET_EXT_Hepatotoxic#Prediction>  (10) 
false

>  <ADMET_EXT_Hepatotoxic_Applicability>  (10) 
OPS PC11 out of range. Value: 4.2539. Training min, max, SD, explained variance: -4.0074, 4.0205, 1.463, 0.0267.

>  <ADMET_EXT_Hepatotoxic_Applicability#MD>  (10) 
10.6538394252971

>  <ADMET_EXT_Hepatotoxic_Applicability#MDpvalue>  (10) 
0.0175680443160278

>  <ADMET_Absorption_Level>  (10) 
0

>  <ADMET_EXT_PPB>  (10) 
3.80437698359687

>  <ADMET_EXT_PPB#Prediction>  (10) 
true

>  <ADMET_EXT_PPB_Applicability>  (10) 
All properties and OPS components are within expected ranges.

>  <ADMET_EXT_PPB_Applicability#MD>  (10) 
11.0280602597701

>  <ADMET_EXT_PPB_Applicability#MDpvalue>  (10) 
0.472139515744559

>  <ADMET_AlogP98>  (10) 
1.818

>  <ADMET_PSA_2D>  (10) 
97.81

$$$$
STOCK6S-26755
     RDKit          3D

 20 22  0  0  0  0  0  0  0  0999 V2000
    5.4414   -5.7440   -0.8884 C   0  0  1  0  0  0  0  0  0  0  0  0
    5.5293   -7.3001   -0.7667 C   0  0  2  0  0  0  0  0  0  0  0  0
    4.1704   -5.4273   -0.1382 C   0  0  0  0  0  0  0  0  0  0  0  0
    3.4084   -6.5707    0.0509 N   0  0  0  0  0  0  0  0  0  0  0  0
    7.0330   -6.4156    0.6030 N   0  0  0  0  0  0  0  0  0  0  0  0
    4.1376   -7.6695   -0.3136 C   0  0  0  0  0  0  0  0  0  0  0  0
    6.5865   -5.3964   -0.1255 N   0  0  0  0  0  0  0  0  0  0  0  0
    6.4632   -7.4546    0.3267 N   0  0  0  0  0  0  0  0  0  0  0  0
    3.8121   -4.2749    0.1330 O   0  0  0  0  0  0  0  0  0  0  0  0
    3.7262   -8.8311   -0.2203 O   0  0  0  0  0  0  0  0  0  0  0  0
    7.1390   -4.1103   -0.0506 C   0  0  0  0  0  0  0  0  0  0  0  0
    2.0553   -6.6422    0.5771 C   0  0  0  0  0  0  0  0  0  0  0  0
   -0.1481   -5.5963    0.5676 O   0  0  0  0  0  0  0  0  0  0  0  0
    8.2338   -3.9122    0.6797 C   0  0  0  0  0  0  0  0  0  0  0  0
    6.5250   -2.9840   -0.7668 C   0  0  0  0  0  0  0  0  0  0  0  0
    1.1815   -5.4743    0.0623 C   0  0  0  0  0  0  0  0  0  0  0  0
   -0.9462   -4.5253    0.0556 C   0  0  0  0  0  0  0  0  0  0  0  0
    7.0610   -1.7676   -0.6794 C   0  0  0  0  0  0  0  0  0  0  0  0
    8.8269   -2.5763    0.7696 C   0  0  0  0  0  0  0  0  0  0  0  0
    8.2673   -1.5545    0.1240 C   0  0  0  0  0  0  0  0  0  0  0  0
  2  1  1  0
  3  1  1  0
  4  3  1  0
  5  7  1  0
  6  2  1  0
  1  7  1  1
  2  8  1  1
  9  3  2  0
 10  6  2  0
 11  7  1  0
 12  4  1  0
 13 16  1  0
 14 11  2  0
 15 11  1  0
 16 12  1  0
 17 13  1  0
 18 15  2  0
 19 14  1  0
 20 18  1  0
  5  8  2  0
  6  4  1  0
 20 19  2  0
M  END
>  <Name>  (11) 
STOCK6S-26755

>  <id>  (11) 
STOCK6S-26755

>  <index>  (11) 
SC

>  <donors>  (11) 
0

>  <acceptors>  (11) 
7

>  <rotatable>  (11) 
4

>  <clogp>  (11) 
2.015

>  <rings>  (11) 
3

>  <tpsa>  (11) 
74.57

>  <iupac_name>  (11) 
5-(2-methoxyethyl)-1-phenyl-1,6a-dihydropyrrolo[3,4-d][1,2,3]triazole-4,6(3aH,5H)-dione

>  <Num_H_Acceptors_Lipinski>  (11) 
7

>  <Num_H_Donors_Lipinski>  (11) 
0

>  <Molecular_Weight>  (11) 
274.27526

>  <ALogP>  (11) 
0.908

>  <Num_RotatableBonds>  (11) 
4

>  <Molecular_PolarSurfaceArea>  (11) 
74.57

>  <Num_H_Acceptors>  (11) 
6

>  <Num_H_Donors>  (11) 
0

>  <ADMET_Solubility>  (11) 
-2.771

>  <ADMET_Solubility_Level>  (11) 
3

>  <ADMET_Unknown_AlogP98>  (11) 
0

>  <ADMET_BBB>  (11) 
-0.865

>  <ADMET_BBB_Level>  (11) 
3

>  <ADMET_EXT_CYP2D6>  (11) 
-6.27022011656685

>  <ADMET_EXT_CYP2D6#Prediction>  (11) 
false

>  <ADMET_EXT_CYP2D6_Applicability>  (11) 
All properties and OPS components are within expected ranges.
Unknown FCFP_2 feature: -1971196727: [*]\N=N/N([*])[*]
Unknown FCFP_2 feature: 675799546: [*]=CN(N=[*])[c](:[*]):[*]
Unknown FCFP_2 feature: -1971226518: [*]C1[*][*]N=N1

>  <ADMET_EXT_CYP2D6_Applicability#MD>  (11) 
14.1808873279691

>  <ADMET_EXT_CYP2D6_Applicability#MDpvalue>  (11) 
1.67281387390746e-05

>  <ADMET_EXT_Hepatotoxic>  (11) 
-4.91850471551969

>  <ADMET_EXT_Hepatotoxic#Prediction>  (11) 
false

>  <ADMET_EXT_Hepatotoxic_Applicability>  (11) 
All properties and OPS components are within expected ranges.
Unknown FCFP_2 feature: -1971226518: [*]C1[*][*]N=N1

>  <ADMET_EXT_Hepatotoxic_Applicability#MD>  (11) 
11.7281696632208

>  <ADMET_EXT_Hepatotoxic_Applicability#MDpvalue>  (11) 
0.000476286240569931

>  <ADMET_Absorption_Level>  (11) 
0

>  <ADMET_EXT_PPB>  (11) 
-2.74963664287407

>  <ADMET_EXT_PPB#Prediction>  (11) 
false

>  <ADMET_EXT_PPB_Applicability>  (11) 
All properties and OPS components are within expected ranges.
Unknown FCFP_2 feature: -1971226518: [*]C1[*][*]N=N1

>  <ADMET_EXT_PPB_Applicability#MD>  (11) 
11.7907233227408

>  <ADMET_EXT_PPB_Applicability#MDpvalue>  (11) 
0.146966227334113

>  <ADMET_AlogP98>  (11) 
1.432

>  <ADMET_PSA_2D>  (11) 
72.883

$$$$
STOCK6S-28411
     RDKit          3D

 22 24  0  0  0  0  0  0  0  0999 V2000
    6.0132   -5.5020    0.0260 C   0  0  0  0  0  0  0  0  0  0  0  0
    6.0178   -4.1986   -0.0221 C   0  0  0  0  0  0  0  0  0  0  0  0
    7.3497   -5.9769    0.0882 N   0  0  0  0  0  0  0  0  0  0  0  0
    3.5591   -4.1350   -0.1370 N   0  0  0  0  0  0  0  0  0  0  0  0
    4.8484   -6.2468    0.0066 N   0  0  0  0  0  0  0  0  0  0  0  0
    7.3216   -3.8021    0.0083 N   0  0  0  0  0  0  0  0  0  0  0  0
    3.6079   -5.5633   -0.0741 C   0  0  0  0  0  0  0  0  0  0  0  0
    4.8123   -3.4028   -0.1009 C   0  0  0  0  0  0  0  0  0  0  0  0
    8.0799   -4.9211    0.0724 C   0  0  0  0  0  0  0  0  0  0  0  0
    9.4458   -4.8595    0.1104 N   0  0  0  0  0  0  0  0  0  0  0  0
   10.0390   -3.6487    0.0779 N   0  0  0  0  0  0  0  0  0  0  0  0
    2.2248   -3.5050   -0.2595 C   0  0  0  0  0  0  0  0  0  0  0  0
    7.8575   -2.4899   -0.0233 C   0  0  0  0  0  0  0  0  0  0  0  0
    9.3845   -2.5437    0.0179 C   0  0  0  0  0  0  0  0  0  0  0  0
    2.5559   -6.2127   -0.1043 O   0  0  0  0  0  0  0  0  0  0  0  0
    4.8909   -2.1739   -0.1613 O   0  0  0  0  0  0  0  0  0  0  0  0
    4.8937   -7.6781    0.0549 C   0  0  0  0  0  0  0  0  0  0  0  0
    2.1667   -1.9832    0.0176 C   0  0  0  0  0  0  0  0  0  0  0  0
   10.1485   -1.2527   -0.0130 C   0  0  0  0  0  0  0  0  0  0  0  0
    0.7554   -1.4345   -0.2567 C   0  0  0  0  0  0  0  0  0  0  0  0
    0.7426    0.0811    0.0162 C   0  0  0  0  0  0  0  0  0  0  0  0
   -0.2711   -2.1308    0.6550 C   0  0  0  0  0  0  0  0  0  0  0  0
  2  1  2  0
  3  1  1  0
  4  7  1  0
  5  1  1  0
  6  2  1  0
  7  5  1  0
  8  2  1  0
  9  3  2  0
 10  9  1  0
 11 10  1  0
 12  4  1  0
 13  6  1  0
 14 13  1  0
 15  7  2  0
 16  8  2  0
 17  5  1  0
 18 12  1  0
 19 14  1  0
 20 18  1  0
 21 20  1  0
 22 20  1  0
  6  9  1  0
  8  4  1  0
 11 14  2  0
M  END
>  <Name>  (12) 
STOCK6S-28411

>  <id>  (12) 
STOCK6S-28411

>  <index>  (12) 
SCD

>  <donors>  (12) 
1

>  <acceptors>  (12) 
8

>  <rotatable>  (12) 
3

>  <clogp>  (12) 
2.271

>  <rings>  (12) 
3

>  <tpsa>  (12) 
86.21

>  <iupac_name>  (12) 
7-isopentyl-3,9-dimethyl-7,9-dihydro-[1,2,4]triazino[3,4-f]purine-6,8(1H,4H)-dione

>  <Num_H_Acceptors_Lipinski>  (12) 
8

>  <Num_H_Donors_Lipinski>  (12) 
1

>  <Molecular_Weight>  (12) 
304.3476

>  <ALogP>  (12) 
1.633

>  <Num_RotatableBonds>  (12) 
3

>  <Molecular_PolarSurfaceArea>  (12) 
82.83

>  <Num_H_Acceptors>  (12) 
5

>  <Num_H_Donors>  (12) 
1

>  <ADMET_Solubility>  (12) 
-3.838

>  <ADMET_Solubility_Level>  (12) 
3

>  <ADMET_Unknown_AlogP98>  (12) 
0

>  <ADMET_BBB>  (12) 
-0.785

>  <ADMET_BBB_Level>  (12) 
3

>  <ADMET_EXT_CYP2D6>  (12) 
-7.40950476927689

>  <ADMET_EXT_CYP2D6#Prediction>  (12) 
false

>  <ADMET_EXT_CYP2D6_Applicability>  (12) 
All properties and OPS components are within expected ranges.
Unknown FCFP_2 feature: 1294285001: [*]=NN[c](:[*]):[*]

>  <ADMET_EXT_CYP2D6_Applicability#MD>  (12) 
18.8795324946053

>  <ADMET_EXT_CYP2D6_Applicability#MDpvalue>  (12) 
6.82666128597173e-11

>  <ADMET_EXT_Hepatotoxic>  (12) 
-6.90713938420893

>  <ADMET_EXT_Hepatotoxic#Prediction>  (12) 
false

>  <ADMET_EXT_Hepatotoxic_Applicability>  (12) 
All properties and OPS components are within expected ranges.
Unknown FCFP_2 feature: 1294285001: [*]=NN[c](:[*]):[*]

>  <ADMET_EXT_Hepatotoxic_Applicability#MD>  (12) 
10.9291660883605

>  <ADMET_EXT_Hepatotoxic_Applicability#MDpvalue>  (12) 
0.00774494209805627

>  <ADMET_Absorption_Level>  (12) 
0

>  <ADMET_EXT_PPB>  (12) 
-11.1882553056959

>  <ADMET_EXT_PPB#Prediction>  (12) 
false

>  <ADMET_EXT_PPB_Applicability>  (12) 
All properties and OPS components are within expected ranges.

>  <ADMET_EXT_PPB_Applicability#MD>  (12) 
14.5028125637494

>  <ADMET_EXT_PPB_Applicability#MDpvalue>  (12) 
9.34871701701444e-06

>  <ADMET_AlogP98>  (12) 
2.158

>  <ADMET_PSA_2D>  (12) 
82.049

$$$$
STOCK6S-32405
     RDKit          3D

 23 24  0  0  0  0  0  0  0  0999 V2000
    0.3659   -4.3624    0.1497 N   0  0  0  0  0  0  0  0  0  0  0  0
   -0.4733   -3.2266   -0.0039 C   0  0  0  0  0  0  0  0  0  0  0  0
    1.7812   -3.9945    0.1891 C   0  0  0  0  0  0  0  0  0  0  0  0
    1.9947   -2.5171    0.0131 C   0  0  0  0  0  0  0  0  0  0  0  0
    0.4680   -1.8312   -0.1000 S   0  0  0  0  0  0  0  0  0  0  0  0
    3.1315   -1.7909   -0.0619 C   0  0  0  0  0  0  0  0  0  0  0  0
   -0.1747   -5.7277    0.2862 C   0  0  0  0  0  0  0  0  0  0  0  0
    0.7622   -6.8629   -0.1435 C   0  0  0  0  0  0  0  0  0  0  0  0
   -1.7082   -3.2553   -0.0513 O   0  0  0  0  0  0  0  0  0  0  0  0
    2.6797   -4.8139    0.3559 O   0  0  0  0  0  0  0  0  0  0  0  0
    1.8073   -6.6414   -0.7636 O   0  0  0  0  0  0  0  0  0  0  0  0
    0.4521   -8.1234    0.1386 N   0  0  0  0  0  0  0  0  0  0  0  0
    4.5775   -2.2371   -0.0195 C   0  0  0  0  0  0  0  0  0  0  0  0
    1.7332  -11.6027   -0.2850 N   0  0  0  0  0  0  0  0  0  0  0  0
    1.3554   -9.1656   -0.2640 C   0  0  0  0  0  0  0  0  0  0  0  0
    0.7698  -10.5469    0.0845 C   0  0  0  0  0  0  0  0  0  0  0  0
    2.9743  -11.4425    0.4950 C   0  0  0  0  0  0  0  0  0  0  0  0
    1.1503  -12.9207   -0.0012 C   0  0  0  0  0  0  0  0  0  0  0  0
    5.5206   -1.2947   -0.0031 C   0  0  0  0  0  0  0  0  0  0  0  0
    4.9995   -3.6435   -0.0295 C   0  0  0  0  0  0  0  0  0  0  0  0
    6.2865   -3.9788   -0.0153 C   0  0  0  0  0  0  0  0  0  0  0  0
    6.9430   -1.6603    0.0178 C   0  0  0  0  0  0  0  0  0  0  0  0
    7.3061   -2.9407    0.0112 C   0  0  0  0  0  0  0  0  0  0  0  0
  2  1  1  0
  3  1  1  0
  4  3  1  0
  5  2  1  0
  6  4  2  0
  7  1  1  0
  8  7  1  0
  9  2  2  0
 10  3  2  0
 11  8  2  0
 12  8  1  0
 13  6  1  0
 14 16  1  0
 15 12  1  0
 16 15  1  0
 17 14  1  0
 18 14  1  0
 19 13  2  0
 20 13  1  0
 21 20  2  0
 22 19  1  0
 23 21  1  0
  5  4  1  0
 22 23  2  0
M  END
>  <Name>  (13) 
STOCK6S-32405

>  <id>  (13) 
STOCK6S-32405

>  <index>  (13) 
SCD

>  <donors>  (13) 
1

>  <acceptors>  (13) 
6

>  <rotatable>  (13) 
7

>  <clogp>  (13) 
2.107

>  <rings>  (13) 
2

>  <tpsa>  (13) 
69.72

>  <iupac_name>  (13) 
(E)-2-(5-benzylidene-2,4-dioxothiazolidin-3-yl)-N-(2-(dimethylamino)ethyl)acetamide

>  <Num_H_Acceptors_Lipinski>  (13) 
6

>  <Num_H_Donors_Lipinski>  (13) 
1

>  <Molecular_Weight>  (13) 
333.40536

>  <ALogP>  (13) 
1.346

>  <Num_RotatableBonds>  (13) 
6

>  <Molecular_PolarSurfaceArea>  (13) 
95.02

>  <Num_H_Acceptors>  (13) 
5

>  <Num_H_Donors>  (13) 
1

>  <ADMET_Solubility>  (13) 
-2.919

>  <ADMET_Solubility_Level>  (13) 
3

>  <ADMET_Unknown_AlogP98>  (13) 
0

>  <ADMET_BBB>  (13) 
-0.706

>  <ADMET_BBB_Level>  (13) 
3

>  <ADMET_EXT_CYP2D6>  (13) 
-7.17837080796287

>  <ADMET_EXT_CYP2D6#Prediction>  (13) 
false

>  <ADMET_EXT_CYP2D6_Applicability>  (13) 
All properties and OPS components are within expected ranges.

>  <ADMET_EXT_CYP2D6_Applicability#MD>  (13) 
10.6006888500035

>  <ADMET_EXT_CYP2D6_Applicability#MDpvalue>  (13) 
0.0451482159345226

>  <ADMET_EXT_Hepatotoxic>  (13) 
-7.18788641822983

>  <ADMET_EXT_Hepatotoxic#Prediction>  (13) 
false

>  <ADMET_EXT_Hepatotoxic_Applicability>  (13) 
All properties and OPS components are within expected ranges.

>  <ADMET_EXT_Hepatotoxic_Applicability#MD>  (13) 
10.1894541293517

>  <ADMET_EXT_Hepatotoxic_Applicability#MDpvalue>  (13) 
0.0587145568512539

>  <ADMET_Absorption_Level>  (13) 
0

>  <ADMET_EXT_PPB>  (13) 
-3.05071685213829

>  <ADMET_EXT_PPB#Prediction>  (13) 
false

>  <ADMET_EXT_PPB_Applicability>  (13) 
All properties and OPS components are within expected ranges.

>  <ADMET_EXT_PPB_Applicability#MD>  (13) 
12.8807483296773

>  <ADMET_EXT_PPB_Applicability#MDpvalue>  (13) 
0.0083632865476284

>  <ADMET_AlogP98>  (13) 
1.871

>  <ADMET_PSA_2D>  (13) 
71.417

$$$$
STOCK6S-33375
     RDKit          3D

 16 17  0  0  0  0  0  0  0  0999 V2000
    3.7202    1.1455   -0.2844 C   0  0  0  0  0  0  0  0  0  0  0  0
    1.7889   -0.5847    0.0682 C   0  0  0  0  0  0  0  0  0  0  0  0
    5.0838    1.4494   -0.2304 N   0  0  0  0  0  0  0  0  0  0  0  0
    1.6709   -2.0698    0.4823 C   0  0  0  0  0  0  0  0  0  0  0  0
    3.3120   -0.2863    0.0315 C   0  0  0  0  0  0  0  0  0  0  0  0
    2.8999    2.0281   -0.5343 O   0  0  0  0  0  0  0  0  0  0  0  0
    2.6720   -2.6121    0.9620 O   0  0  0  0  0  0  0  0  0  0  0  0
    0.5334   -2.8562    0.2705 O   0  0  0  0  0  0  0  0  0  0  0  0
    6.0849    0.4567    0.0622 C   0  0  0  0  0  0  0  0  0  0  0  0
    5.5961    2.7753   -0.4438 C   0  0  0  0  0  0  0  0  0  0  0  0
    1.0162    0.3180    1.0431 C   0  0  0  0  0  0  0  0  0  0  0  0
    1.0056   -0.2317   -1.2119 C   0  0  0  0  0  0  0  0  0  0  0  0
    7.0225    2.6180    0.1315 C   0  0  0  0  0  0  0  0  0  0  0  0
    7.3674    1.2065   -0.3351 C   0  0  0  0  0  0  0  0  0  0  0  0
   -0.4534   -0.0839    0.7680 C   0  0  0  0  0  0  0  0  0  0  0  0
   -0.4833   -0.3708   -0.7790 C   0  0  0  0  0  0  0  0  0  0  0  0
  2  5  1  0
  3  1  1  0
  4  2  1  0
  5  1  1  0
  6  1  2  0
  7  4  2  0
  8  4  1  0
  9  3  1  0
 10  3  1  0
 11  2  1  0
 12  2  1  0
 13 10  1  0
 14  9  1  0
 15 11  1  0
 16 12  1  0
 14 13  1  0
 15 16  1  0
M  END
>  <Name>  (14) 
STOCK6S-33375

>  <id>  (14) 
STOCK6S-33375

>  <index>  (14) 
SCD

>  <donors>  (14) 
1

>  <acceptors>  (14) 
4

>  <rotatable>  (14) 
4

>  <clogp>  (14) 
1.21

>  <rings>  (14) 
2

>  <tpsa>  (14) 
57.61

>  <iupac_name>  (14) 
1-(2-oxo-2-(pyrrolidin-1-yl)ethyl)cyclopentanecarboxylic acid

>  <Num_H_Acceptors_Lipinski>  (14) 
4

>  <Num_H_Donors_Lipinski>  (14) 
1

>  <Molecular_Weight>  (14) 
225.28416

>  <ALogP>  (14) 
1.306

>  <Num_RotatableBonds>  (14) 
3

>  <Molecular_PolarSurfaceArea>  (14) 
57.61

>  <Num_H_Acceptors>  (14) 
3

>  <Num_H_Donors>  (14) 
1

>  <ADMET_Solubility>  (14) 
-1.812

>  <ADMET_Solubility_Level>  (14) 
4

>  <ADMET_Unknown_AlogP98>  (14) 
0

>  <ADMET_BBB>  (14) 
-0.68

>  <ADMET_BBB_Level>  (14) 
3

>  <ADMET_EXT_CYP2D6>  (14) 
-9.4173084888124

>  <ADMET_EXT_CYP2D6#Prediction>  (14) 
false

>  <ADMET_EXT_CYP2D6_Applicability>  (14) 
All properties and OPS components are within expected ranges.

>  <ADMET_EXT_CYP2D6_Applicability#MD>  (14) 
8.51043643386995

>  <ADMET_EXT_CYP2D6_Applicability#MDpvalue>  (14) 
0.582841513632374

>  <ADMET_EXT_Hepatotoxic>  (14) 
-4.29076122375716

>  <ADMET_EXT_Hepatotoxic#Prediction>  (14) 
false

>  <ADMET_EXT_Hepatotoxic_Applicability>  (14) 
All properties and OPS components are within expected ranges.

>  <ADMET_EXT_Hepatotoxic_Applicability#MD>  (14) 
8.14146354536987

>  <ADMET_EXT_Hepatotoxic_Applicability#MDpvalue>  (14) 
0.845005755507483

>  <ADMET_Absorption_Level>  (14) 
0

>  <ADMET_EXT_PPB>  (14) 
-3.30350694812847

>  <ADMET_EXT_PPB#Prediction>  (14) 
false

>  <ADMET_EXT_PPB_Applicability>  (14) 
All properties and OPS components are within expected ranges.

>  <ADMET_EXT_PPB_Applicability#MD>  (14) 
9.4247801816448

>  <ADMET_EXT_PPB_Applicability#MDpvalue>  (14) 
0.982633803249468

>  <ADMET_AlogP98>  (14) 
1.306

>  <ADMET_PSA_2D>  (14) 
58.769

$$$$
STOCK6S-34259
     RDKit          3D

 23 24  0  0  0  0  0  0  0  0999 V2000
   -3.5271   -1.2156    0.0258 N   0  0  0  0  0  0  0  0  0  0  0  0
   -2.7197   -2.3480   -0.2069 C   0  0  0  0  0  0  0  0  0  0  0  0
   -2.6735   -0.1801    0.3797 C   0  0  0  0  0  0  0  0  0  0  0  0
   -1.3786   -2.0588    0.0763 N   0  0  0  0  0  0  0  0  0  0  0  0
   -1.2647   -0.6917    0.5519 C   0  0  1  0  0  0  0  0  0  0  0  0
   -5.0139   -1.0205   -0.0834 C   0  0  2  0  0  0  0  0  0  0  0  0
   -3.0990   -3.4581   -0.5873 O   0  0  0  0  0  0  0  0  0  0  0  0
    2.3722    0.1588   -0.2654 C   0  0  0  0  0  0  0  0  0  0  0  0
   -3.0320    0.9734    0.6311 O   0  0  0  0  0  0  0  0  0  0  0  0
   -0.1599    0.1253   -0.1409 C   0  0  0  0  0  0  0  0  0  0  0  0
   -6.0122   -2.2171   -0.0615 C   0  0  0  0  0  0  0  0  0  0  0  0
    2.2506    1.2368   -0.8574 O   0  0  0  0  0  0  0  0  0  0  0  0
    5.9694   -0.3855    0.0993 C   0  0  0  0  0  0  0  0  0  0  0  0
    3.5813   -0.3321    0.0015 N   0  0  0  0  0  0  0  0  0  0  0  0
    7.1935    0.0926   -0.1134 C   0  0  0  0  0  0  0  0  0  0  0  0
    1.1635   -0.6009    0.1947 C   0  0  0  0  0  0  0  0  0  0  0  0
   -5.3196   -0.1863   -1.3401 C   0  0  0  0  0  0  0  0  0  0  0  0
    4.7664    0.3699   -0.3940 C   0  0  0  0  0  0  0  0  0  0  0  0
   -7.4348   -1.9207   -0.3054 C   0  0  0  0  0  0  0  0  0  0  0  0
   -5.6613   -3.4772    0.1843 C   0  0  0  0  0  0  0  0  0  0  0  0
   -6.6584   -4.5517    0.1899 C   0  0  0  0  0  0  0  0  0  0  0  0
   -8.3451   -2.8944   -0.2927 C   0  0  0  0  0  0  0  0  0  0  0  0
   -7.9391   -4.2732   -0.0386 C   0  0  0  0  0  0  0  0  0  0  0  0
  2  1  1  0
  3  1  1  0
  4  2  1  0
  5  3  1  0
  6  1  1  0
  7  2  2  0
  8 16  1  0
  9  3  2  0
  5 10  1  6
 11  6  1  0
 12  8  2  0
 13 18  1  0
 14  8  1  0
 15 13  2  0
 16 10  1  0
  6 17  1  6
 18 14  1  0
 19 11  2  0
 20 11  1  0
 21 20  2  0
 22 19  1  0
 23 21  1  0
  5  4  1  0
 23 22  2  0
M  END
>  <Name>  (15) 
STOCK6S-34259

>  <id>  (15) 
STOCK6S-34259

>  <index>  (15) 
SCD

>  <donors>  (15) 
2

>  <acceptors>  (15) 
6

>  <rotatable>  (15) 
8

>  <clogp>  (15) 
0.533

>  <rings>  (15) 
2

>  <tpsa>  (15) 
78.51

>  <iupac_name>  (15) 
N-allyl-3-((S)-2,5-dioxo-1-((S)-1-phenylethyl)imidazolidin-4-yl)propanamide

>  <Num_H_Acceptors_Lipinski>  (15) 
6

>  <Num_H_Donors_Lipinski>  (15) 
2

>  <Molecular_Weight>  (15) 
315.36694

>  <ALogP>  (15) 
1.388

>  <Num_RotatableBonds>  (15) 
7

>  <Molecular_PolarSurfaceArea>  (15) 
78.51

>  <Num_H_Acceptors>  (15) 
3

>  <Num_H_Donors>  (15) 
2

>  <ADMET_Solubility>  (15) 
-2.747

>  <ADMET_Solubility_Level>  (15) 
3

>  <ADMET_Unknown_AlogP98>  (15) 
0

>  <ADMET_BBB>  (15) 
-0.843

>  <ADMET_BBB_Level>  (15) 
3

>  <ADMET_EXT_CYP2D6>  (15) 
-6.17570792839455

>  <ADMET_EXT_CYP2D6#Prediction>  (15) 
false

>  <ADMET_EXT_CYP2D6_Applicability>  (15) 
All properties and OPS components are within expected ranges.

>  <ADMET_EXT_CYP2D6_Applicability#MD>  (15) 
12.7860655746687

>  <ADMET_EXT_CYP2D6_Applicability#MDpvalue>  (15) 
0.000503433104581523

>  <ADMET_EXT_Hepatotoxic>  (15) 
-7.30588575860711

>  <ADMET_EXT_Hepatotoxic#Prediction>  (15) 
false

>  <ADMET_EXT_Hepatotoxic_Applicability>  (15) 
All properties and OPS components are within expected ranges.

>  <ADMET_EXT_Hepatotoxic_Applicability#MD>  (15) 
9.44086614980396

>  <ADMET_EXT_Hepatotoxic_Applicability#MDpvalue>  (15) 
0.254346668151907

>  <ADMET_Absorption_Level>  (15) 
0

>  <ADMET_EXT_PPB>  (15) 
-10.1757046987598

>  <ADMET_EXT_PPB#Prediction>  (15) 
false

>  <ADMET_EXT_PPB_Applicability>  (15) 
All properties and OPS components are within expected ranges.

>  <ADMET_EXT_PPB_Applicability#MD>  (15) 
12.3175775698919

>  <ADMET_EXT_PPB_Applicability#MDpvalue>  (15) 
0.043935015223961

>  <ADMET_AlogP98>  (15) 
1.912

>  <ADMET_PSA_2D>  (15) 
80.875

$$$$
STOCK6S-34449
     RDKit          3D

 28 31  0  0  0  0  0  0  0  0999 V2000
    1.0759    0.7988   -0.4383 C   0  0  2  0  0  0  0  0  0  0  0  0
    2.5687   -1.0677   -0.1406 N   0  0  0  0  0  0  0  0  0  0  0  0
    2.5234    0.3724   -0.3253 C   0  0  0  0  0  0  0  0  0  0  0  0
    1.2329   -1.5335    0.0306 C   0  0  0  0  0  0  0  0  0  0  0  0
    0.3942    1.9700    0.3436 C   0  0  2  0  0  0  0  0  0  0  0  0
    0.4032   -0.3233    0.1667 C   0  0  2  0  0  0  0  0  0  0  0  0
   -1.0288   -0.0752    0.3424 N   0  0  0  0  0  0  0  0  0  0  0  0
   -1.0043    1.3832   -0.0379 C   0  0  1  0  0  0  0  0  0  0  0  0
   -2.2960    2.0531    0.2548 C   0  0  0  0  0  0  0  0  0  0  0  0
    0.6672    3.3849   -0.2086 C   0  0  0  0  0  0  0  0  0  0  0  0
    3.7594   -1.8524   -0.0996 C   0  0  0  0  0  0  0  0  0  0  0  0
   -3.4163    1.3167    0.2122 N   0  0  0  0  0  0  0  0  0  0  0  0
    3.4972    1.1125   -0.4857 O   0  0  0  0  0  0  0  0  0  0  0  0
    0.8603   -2.6987    0.2241 O   0  0  0  0  0  0  0  0  0  0  0  0
   -2.3480    3.2641    0.4955 O   0  0  0  0  0  0  0  0  0  0  0  0
   -0.1839    3.8970   -0.9440 O   0  0  0  0  0  0  0  0  0  0  0  0
   -1.9904   -0.6303   -0.5823 C   0  0  0  0  0  0  0  0  0  0  0  0
    3.7078   -3.1854    0.0025 C   0  0  0  0  0  0  0  0  0  0  0  0
    5.0656   -1.1932   -0.1486 C   0  0  0  0  0  0  0  0  0  0  0  0
    1.8096    4.1771    0.1274 O   0  0  0  0  0  0  0  0  0  0  0  0
   -3.3937   -0.1343   -0.0857 C   0  0  0  0  0  0  0  0  0  0  0  0
    6.1405   -3.3533    0.0063 C   0  0  0  0  0  0  0  0  0  0  0  0
    6.1895   -1.9002   -0.0945 C   0  0  0  0  0  0  0  0  0  0  0  0
    4.9569   -3.9708    0.0516 C   0  0  0  0  0  0  0  0  0  0  0  0
    7.3525   -4.0688    0.0432 O   0  0  0  0  0  0  0  0  0  0  0  0
    7.1465   -5.4836    0.1238 C   0  0  0  0  0  0  0  0  0  0  0  0
    2.7190    3.5737    1.0535 C   0  0  0  0  0  0  0  0  0  0  0  0
    8.5161   -6.1911    0.1115 C   0  0  0  0  0  0  0  0  0  0  0  0
  2  3  1  0
  1  3  1  1
  4  6  1  0
  5  1  1  0
  6  1  1  0
  6  7  1  6
  8  5  1  0
  8  9  1  1
  5 10  1  6
 11  2  1  0
 12  9  1  0
 13  3  2  0
 14  4  2  0
 15  9  2  0
 16 10  2  0
 17  7  1  0
 18 11  2  0
 19 11  1  0
 20 10  1  0
 21 17  1  0
 22 23  1  0
 23 19  2  0
 24 18  1  0
 25 22  1  0
 26 25  1  0
 27 20  1  0
 28 26  1  0
  4  2  1  0
  8  7  1  0
 21 12  1  0
 24 22  2  0
M  END
>  <Name>  (16) 
STOCK6S-34449

>  <id>  (16) 
STOCK6S-34449

>  <index>  (16) 
SC

>  <donors>  (16) 
1

>  <acceptors>  (16) 
9

>  <rotatable>  (16) 
5

>  <clogp>  (16) 
2.066

>  <rings>  (16) 
4

>  <tpsa>  (16) 
105.25

>  <iupac_name>  (16) 
methyl 2-(4-ethoxyphenyl)-1,3,8-trioxodecahydro-1H-pyrrolo[3',4':4,5]pyrrolo[1,2-a]pyrazine-9-carboxylate

>  <Num_H_Acceptors_Lipinski>  (16) 
9

>  <Num_H_Donors_Lipinski>  (16) 
1

>  <Molecular_Weight>  (16) 
387.38654

>  <ALogP>  (16) 
-0.042

>  <Num_RotatableBonds>  (16) 
5

>  <Molecular_PolarSurfaceArea>  (16) 
105.25

>  <Num_H_Acceptors>  (16) 
7

>  <Num_H_Donors>  (16) 
1

>  <ADMET_Solubility>  (16) 
-2.829

>  <ADMET_Solubility_Level>  (16) 
3

>  <ADMET_Unknown_AlogP98>  (16) 
0

>  <ADMET_BBB>  (16) 
-1.662

>  <ADMET_BBB_Level>  (16) 
3

>  <ADMET_EXT_CYP2D6>  (16) 
-11.9989426836915

>  <ADMET_EXT_CYP2D6#Prediction>  (16) 
false

>  <ADMET_EXT_CYP2D6_Applicability>  (16) 
All properties and OPS components are within expected ranges.

>  <ADMET_EXT_CYP2D6_Applicability#MD>  (16) 
15.4813633596133

>  <ADMET_EXT_CYP2D6_Applicability#MDpvalue>  (16) 
5.79418961859161e-07

>  <ADMET_EXT_Hepatotoxic>  (16) 
-5.34908532751847

>  <ADMET_EXT_Hepatotoxic#Prediction>  (16) 
false

>  <ADMET_EXT_Hepatotoxic_Applicability>  (16) 
All properties and OPS components are within expected ranges.

>  <ADMET_EXT_Hepatotoxic_Applicability#MD>  (16) 
13.3007408242396

>  <ADMET_EXT_Hepatotoxic_Applicability#MDpvalue>  (16) 
4.0572476491334e-07

>  <ADMET_Absorption_Level>  (16) 
0

>  <ADMET_EXT_PPB>  (16) 
-4.85870235355936

>  <ADMET_EXT_PPB#Prediction>  (16) 
false

>  <ADMET_EXT_PPB_Applicability>  (16) 
All properties and OPS components are within expected ranges.

>  <ADMET_EXT_PPB_Applicability#MD>  (16) 
15.0970257045517

>  <ADMET_EXT_PPB_Applicability#MDpvalue>  (16) 
3.88999904648226e-07

>  <ADMET_AlogP98>  (16) 
0.578

>  <ADMET_PSA_2D>  (16) 
106.578

$$$$
STOCK6S-35449
     RDKit          3D

 28 31  0  0  0  0  0  0  0  0999 V2000
    5.9545   -2.5518   -0.0222 C   0  0  0  0  0  0  0  0  0  0  0  0
    5.9394   -1.1536   -0.1327 N   0  0  0  0  0  0  0  0  0  0  0  0
    7.0580   -3.1892    0.0746 N   0  0  0  0  0  0  0  0  0  0  0  0
    7.0796   -0.4729   -0.1291 C   0  0  0  0  0  0  0  0  0  0  0  0
    4.7518   -3.2598   -0.0112 N   0  0  0  0  0  0  0  0  0  0  0  0
    8.3329   -1.1964   -0.0355 C   0  0  0  0  0  0  0  0  0  0  0  0
    8.2951   -2.5201    0.0617 C   0  0  0  0  0  0  0  0  0  0  0  0
   12.5033   -3.0934    0.0277 C   0  0  0  0  0  0  0  0  0  0  0  0
    2.3352   -4.7575   -0.1381 N   0  0  0  0  0  0  0  0  0  0  0  0
   12.4700   -4.3678    0.0356 N   0  0  0  0  0  0  0  0  0  0  0  0
   13.7321   -2.4045    0.0050 N   0  0  0  0  0  0  0  0  0  0  0  0
   10.9867   -2.1734    0.0398 S   0  0  0  0  0  0  0  0  0  0  0  0
    3.5265   -2.5756   -0.3837 C   0  0  0  0  0  0  0  0  0  0  0  0
    4.7828   -4.6870    0.2063 C   0  0  0  0  0  0  0  0  0  0  0  0
    7.0733    0.7594   -0.2117 O   0  0  0  0  0  0  0  0  0  0  0  0
    9.5760   -3.3063    0.1379 C   0  0  0  0  0  0  0  0  0  0  0  0
    1.0167   -5.3382    0.2762 C   0  0  0  0  0  0  0  0  0  0  0  0
    3.4360   -5.2231    0.7273 C   0  0  0  0  0  0  0  0  0  0  0  0
    2.2559   -3.3079    0.1019 C   0  0  0  0  0  0  0  0  0  0  0  0
    0.8144   -6.8536    0.0717 C   0  0  0  0  0  0  0  0  0  0  0  0
   14.8247   -4.4912    0.0018 C   0  0  0  0  0  0  0  0  0  0  0  0
   14.8345   -3.0382   -0.0074 C   0  0  0  0  0  0  0  0  0  0  0  0
   13.6533   -5.1173    0.0230 C   0  0  0  0  0  0  0  0  0  0  0  0
    1.8625   -7.7438   -0.4761 C   0  0  0  0  0  0  0  0  0  0  0  0
   -0.3667   -7.3776    0.4004 C   0  0  0  0  0  0  0  0  0  0  0  0
   -0.6209   -8.8114    0.2300 C   0  0  0  0  0  0  0  0  0  0  0  0
    1.6310   -9.0473   -0.6222 C   0  0  0  0  0  0  0  0  0  0  0  0
    0.3312   -9.6067   -0.2527 C   0  0  0  0  0  0  0  0  0  0  0  0
  2  1  1  0
  3  1  2  0
  4  2  1  0
  5  1  1  0
  6  7  2  0
  7  3  1  0
  8 12  1  0
  9 18  1  0
 10  8  2  0
 11  8  1  0
 12 16  1  0
 13  5  1  0
 14  5  1  0
 15  4  2  0
 16  7  1  0
 17  9  1  0
 18 14  1  0
 19 13  1  0
 20 17  1  0
 21 22  1  0
 22 11  2  0
 23 10  1  0
 24 20  2  0
 25 20  1  0
 26 25  2  0
 27 24  1  0
 28 26  1  0
  9 19  1  0
  6  4  1  0
 21 23  2  0
 28 27  2  0
M  END
>  <Name>  (17) 
STOCK6S-35449

>  <id>  (17) 
STOCK6S-35449

>  <index>  (17) 
SCD

>  <donors>  (17) 
1

>  <acceptors>  (17) 
7

>  <rotatable>  (17) 
6

>  <clogp>  (17) 
1.422

>  <rings>  (17) 
4

>  <tpsa>  (17) 
78.01

>  <iupac_name>  (17) 
2-(4-benzylpiperazin-1-yl)-6-((pyrimidin-2-ylthio)methyl)pyrimidin-4(3H)-one

>  <Num_H_Acceptors_Lipinski>  (17) 
7

>  <Num_H_Donors_Lipinski>  (17) 
1

>  <Molecular_Weight>  (17) 
394.49328

>  <ALogP>  (17) 
2.093

>  <Num_RotatableBonds>  (17) 
6

>  <Molecular_PolarSurfaceArea>  (17) 
99.02

>  <Num_H_Acceptors>  (17) 
7

>  <Num_H_Donors>  (17) 
1

>  <ADMET_Solubility>  (17) 
-3.502

>  <ADMET_Solubility_Level>  (17) 
3

>  <ADMET_Unknown_AlogP98>  (17) 
0

>  <ADMET_BBB>  (17) 
-0.625

>  <ADMET_BBB_Level>  (17) 
3

>  <ADMET_EXT_CYP2D6>  (17) 
-5.29747253532536

>  <ADMET_EXT_CYP2D6#Prediction>  (17) 
false

>  <ADMET_EXT_CYP2D6_Applicability>  (17) 
All properties and OPS components are within expected ranges.
Unknown FCFP_2 feature: -1410079687: [*]S[c]1:n:[*]:[*]:n:1

>  <ADMET_EXT_CYP2D6_Applicability#MD>  (17) 
13.5321094938038

>  <ADMET_EXT_CYP2D6_Applicability#MDpvalue>  (17) 
8.43481255729826e-05

>  <ADMET_EXT_Hepatotoxic>  (17) 
-6.21687796302827

>  <ADMET_EXT_Hepatotoxic#Prediction>  (17) 
false

>  <ADMET_EXT_Hepatotoxic_Applicability>  (17) 
All properties and OPS components are within expected ranges.

>  <ADMET_EXT_Hepatotoxic_Applicability#MD>  (17) 
12.5838068566835

>  <ADMET_EXT_Hepatotoxic_Applicability#MDpvalue>  (17) 
1.29127100711761e-05

>  <ADMET_Absorption_Level>  (17) 
0

>  <ADMET_EXT_PPB>  (17) 
-4.27691102287312

>  <ADMET_EXT_PPB#Prediction>  (17) 
false

>  <ADMET_EXT_PPB_Applicability>  (17) 
All properties and OPS components are within expected ranges.

>  <ADMET_EXT_PPB_Applicability#MD>  (17) 
13.4946899356852

>  <ADMET_EXT_PPB_Applicability#MDpvalue>  (17) 
0.000898463749442892

>  <ADMET_AlogP98>  (17) 
2.093

>  <ADMET_PSA_2D>  (17) 
70.661

$$$$
STOCK6S-36019
     RDKit          3D

 26 29  0  0  0  0  0  0  0  0999 V2000
    4.1799   -2.7762    0.0409 C   0  0  0  0  0  0  0  0  0  0  0  0
    0.3131   -3.1110    0.0103 N   0  0  0  0  0  0  0  0  0  0  0  0
    2.8046   -3.4464   -0.2728 C   0  0  2  0  0  0  0  0  0  0  0  0
   -0.8385   -2.3177   -0.0223 C   0  0  0  0  0  0  0  0  0  0  0  0
    5.4821   -3.4349   -0.0746 N   0  0  0  0  0  0  0  0  0  0  0  0
    8.0154   -4.7504   -0.0241 N   0  0  0  0  0  0  0  0  0  0  0  0
    1.6413   -2.4894    0.1237 C   0  0  0  0  0  0  0  0  0  0  0  0
    9.2353   -5.4354    0.0000 C   0  0  0  0  0  0  0  0  0  0  0  0
   -0.7322   -0.9127   -0.0481 N   0  0  0  0  0  0  0  0  0  0  0  0
   -1.9723   -2.8864   -0.0156 N   0  0  0  0  0  0  0  0  0  0  0  0
    9.2359   -6.6943    0.2053 N   0  0  0  0  0  0  0  0  0  0  0  0
    6.6658   -2.7024    0.3325 C   0  0  0  0  0  0  0  0  0  0  0  0
    5.6490   -4.7823   -0.5879 C   0  0  0  0  0  0  0  0  0  0  0  0
    4.1663   -1.6090    0.4495 O   0  0  0  0  0  0  0  0  0  0  0  0
    6.8091   -5.4964    0.1339 C   0  0  0  0  0  0  0  0  0  0  0  0
    7.9636   -3.3267   -0.2774 C   0  0  0  0  0  0  0  0  0  0  0  0
    0.1086   -4.5399    0.1772 C   0  0  0  0  0  0  0  0  0  0  0  0
    2.5816   -4.8211    0.3893 C   0  0  0  0  0  0  0  0  0  0  0  0
   -3.0930   -0.8216   -0.0595 C   0  0  0  0  0  0  0  0  0  0  0  0
   -3.1579   -2.1477   -0.0364 C   0  0  0  0  0  0  0  0  0  0  0  0
   -1.7823   -0.1901   -0.0649 C   0  0  0  0  0  0  0  0  0  0  0  0
    1.3131   -5.3853   -0.2252 C   0  0  0  0  0  0  0  0  0  0  0  0
   10.4950   -4.7207   -0.2194 C   0  0  0  0  0  0  0  0  0  0  0  0
   10.4307   -7.4371    0.2312 C   0  0  0  0  0  0  0  0  0  0  0  0
   11.6381   -5.4001   -0.2030 C   0  0  0  0  0  0  0  0  0  0  0  0
   11.6029   -6.8370    0.0357 C   0  0  0  0  0  0  0  0  0  0  0  0
  2  7  1  0
  3  1  1  1
  4  2  1  0
  5  1  1  0
  6 15  1  0
  7  3  1  0
  8  6  1  0
  9  4  2  0
 10  4  1  0
 11  8  2  0
 12  5  1  0
 13  5  1  0
 14  1  2  0
 15 13  1  0
 16 12  1  0
 17 22  1  0
 18  3  1  0
 19 20  1  0
 20 10  2  0
 21  9  1  0
 22 18  1  0
 23  8  1  0
 24 11  1  0
 25 23  2  0
 26 25  1  0
  6 16  1  0
 17  2  1  0
 21 19  2  0
 26 24  2  0
M  END
>  <Name>  (18) 
STOCK6S-36019

>  <id>  (18) 
STOCK6S-36019

>  <index>  (18) 
SC

>  <donors>  (18) 
0

>  <acceptors>  (18) 
7

>  <rotatable>  (18) 
4

>  <clogp>  (18) 
1.38

>  <rings>  (18) 
4

>  <tpsa>  (18) 
65.46

>  <iupac_name>  (18) 
(4-(pyridin-2-yl)piperazin-1-yl)(1-(pyrimidin-2-yl)piperidin-3-yl)methanone

>  <Num_H_Acceptors_Lipinski>  (18) 
7

>  <Num_H_Donors_Lipinski>  (18) 
0

>  <Molecular_Weight>  (18) 
352.43346

>  <ALogP>  (18) 
1.773

>  <Num_RotatableBonds>  (18) 
3

>  <Molecular_PolarSurfaceArea>  (18) 
65.46

>  <Num_H_Acceptors>  (18) 
6

>  <Num_H_Donors>  (18) 
0

>  <ADMET_Solubility>  (18) 
-3.221

>  <ADMET_Solubility_Level>  (18) 
3

>  <ADMET_Unknown_AlogP98>  (18) 
0

>  <ADMET_BBB>  (18) 
-0.573

>  <ADMET_BBB_Level>  (18) 
3

>  <ADMET_EXT_CYP2D6>  (18) 
-7.02726889620676

>  <ADMET_EXT_CYP2D6#Prediction>  (18) 
false

>  <ADMET_EXT_CYP2D6_Applicability>  (18) 
All properties and OPS components are within expected ranges.
Unknown FCFP_2 feature: -1410079687: [*]S[c]1:n:[*]:[*]:n:1

>  <ADMET_EXT_CYP2D6_Applicability#MD>  (18) 
10.9996877935291

>  <ADMET_EXT_CYP2D6_Applicability#MDpvalue>  (18) 
0.0221483714080729

>  <ADMET_EXT_Hepatotoxic>  (18) 
-8.03331201514764

>  <ADMET_EXT_Hepatotoxic#Prediction>  (18) 
false

>  <ADMET_EXT_Hepatotoxic_Applicability>  (18) 
All properties and OPS components are within expected ranges.

>  <ADMET_EXT_Hepatotoxic_Applicability#MD>  (18) 
10.6099153495538

>  <ADMET_EXT_Hepatotoxic_Applicability#MDpvalue>  (18) 
0.01987989337635

>  <ADMET_Absorption_Level>  (18) 
0

>  <ADMET_EXT_PPB>  (18) 
3.25839570040971

>  <ADMET_EXT_PPB#Prediction>  (18) 
true

>  <ADMET_EXT_PPB_Applicability>  (18) 
All properties and OPS components are within expected ranges.

>  <ADMET_EXT_PPB_Applicability#MD>  (18) 
11.5278778118998

>  <ADMET_EXT_PPB_Applicability#MDpvalue>  (18) 
0.237059977545545

>  <ADMET_AlogP98>  (18) 
1.773

>  <ADMET_PSA_2D>  (18) 
61.141

$$$$
STOCK6S-36231
     RDKit          3D

 18 19  0  0  0  0  0  0  0  0999 V2000
    4.9172   -5.3853    0.0000 N   0  0  0  0  0  0  0  0  0  0  0  0
    5.3005   -4.0300    0.0002 C   0  0  0  0  0  0  0  0  0  0  0  0
    3.6210   -5.8490    0.0002 C   0  0  0  0  0  0  0  0  0  0  0  0
    5.8832   -6.4726   -0.0003 C   0  0  0  0  0  0  0  0  0  0  0  0
    9.0754   -0.8473    0.0001 C   0  0  0  0  0  0  0  0  0  0  0  0
    3.5955   -7.1585    0.0000 C   0  0  0  0  0  0  0  0  0  0  0  0
    4.4577   -3.1261    0.0005 O   0  0  0  0  0  0  0  0  0  0  0  0
    8.6153   -2.2769   -0.0002 C   0  0  0  0  0  0  0  0  0  0  0  0
    6.6580   -3.7063    0.0000 N   0  0  0  0  0  0  0  0  0  0  0  0
    4.9659   -7.7662   -0.0003 C   0  0  0  0  0  0  0  0  0  0  0  0
    8.2461    0.0700    0.0008 O   0  0  0  0  0  0  0  0  0  0  0  0
    7.0761   -2.3336    0.0003 C   0  0  0  0  0  0  0  0  0  0  0  0
   10.4398   -0.5588   -0.0004 O   0  0  0  0  0  0  0  0  0  0  0  0
    2.3948   -5.0628    0.0005 C   0  0  0  0  0  0  0  0  0  0  0  0
    2.3430   -7.8954    0.0002 C   0  0  0  0  0  0  0  0  0  0  0  0
   10.6375    0.8581    0.0001 C   0  0  0  0  0  0  0  0  0  0  0  0
    1.2287   -5.7140    0.0006 C   0  0  0  0  0  0  0  0  0  0  0  0
    1.2017   -7.2014    0.0004 C   0  0  0  0  0  0  0  0  0  0  0  0
  2  1  1  0
  3  1  1  0
  4  1  1  0
  5  8  1  0
  6  3  2  0
  7  2  2  0
  8 12  1  0
  9  2  1  0
 10  4  1  0
 11  5  2  0
 12  9  1  0
 13  5  1  0
 14  3  1  0
 15  6  1  0
 16 13  1  0
 17 14  2  0
 18 17  1  0
  6 10  1  0
 18 15  2  0
M  END
>  <Name>  (19) 
STOCK6S-36231

>  <id>  (19) 
STOCK6S-36231

>  <index>  (19) 
SC

>  <donors>  (19) 
1

>  <acceptors>  (19) 
5

>  <rotatable>  (19) 
6

>  <clogp>  (19) 
1.715

>  <rings>  (19) 
2

>  <tpsa>  (19) 
58.64

>  <iupac_name>  (19) 
methyl 3-(indoline-1-carboxamido)propanoate

>  <Num_H_Acceptors_Lipinski>  (19) 
5

>  <Num_H_Donors_Lipinski>  (19) 
1

>  <Molecular_Weight>  (19) 
248.27774

>  <ALogP>  (19) 
1.182

>  <Num_RotatableBonds>  (19) 
4

>  <Molecular_PolarSurfaceArea>  (19) 
58.64

>  <Num_H_Acceptors>  (19) 
3

>  <Num_H_Donors>  (19) 
1

>  <ADMET_Solubility>  (19) 
-2.045

>  <ADMET_Solubility_Level>  (19) 
3

>  <ADMET_Unknown_AlogP98>  (19) 
0

>  <ADMET_BBB>  (19) 
-0.733

>  <ADMET_BBB_Level>  (19) 
3

>  <ADMET_EXT_CYP2D6>  (19) 
-6.70891542688873

>  <ADMET_EXT_CYP2D6#Prediction>  (19) 
false

>  <ADMET_EXT_CYP2D6_Applicability>  (19) 
All properties and OPS components are within expected ranges.

>  <ADMET_EXT_CYP2D6_Applicability#MD>  (19) 
15.6207622767327

>  <ADMET_EXT_CYP2D6_Applicability#MDpvalue>  (19) 
4.01451631392423e-07

>  <ADMET_EXT_Hepatotoxic>  (19) 
-8.49798069769828

>  <ADMET_EXT_Hepatotoxic#Prediction>  (19) 
false

>  <ADMET_EXT_Hepatotoxic_Applicability>  (19) 
All properties and OPS components are within expected ranges.

>  <ADMET_EXT_Hepatotoxic_Applicability#MD>  (19) 
12.1743724987799

>  <ADMET_EXT_Hepatotoxic_Applicability#MDpvalue>  (19) 
7.82451308506369e-05

>  <ADMET_Absorption_Level>  (19) 
0

>  <ADMET_EXT_PPB>  (19) 
2.55619605122397

>  <ADMET_EXT_PPB#Prediction>  (19) 
true

>  <ADMET_EXT_PPB_Applicability>  (19) 
All properties and OPS components are within expected ranges.

>  <ADMET_EXT_PPB_Applicability#MD>  (19) 
13.4770741073636

>  <ADMET_EXT_PPB_Applicability#MDpvalue>  (19) 
0.000963596764147075

>  <ADMET_AlogP98>  (19) 
1.182

>  <ADMET_PSA_2D>  (19) 
59.694

$$$$
STOCK6S-36547
     RDKit          3D

 22 24  0  0  0  0  0  0  0  0999 V2000
    0.1311   -3.5967    0.0983 N   0  0  0  0  0  0  0  0  0  0  0  0
   -1.0850   -2.8992    0.0430 C   0  0  0  0  0  0  0  0  0  0  0  0
    2.5843   -3.6673   -0.3483 C   0  0  2  0  0  0  0  0  0  0  0  0
    3.8714   -2.9091   -0.1479 C   0  0  0  0  0  0  0  0  0  0  0  0
    1.3798   -2.8536    0.1734 C   0  0  0  0  0  0  0  0  0  0  0  0
    5.0427   -3.5449   -0.0757 N   0  0  0  0  0  0  0  0  0  0  0  0
   -1.0756   -1.4896   -0.0276 N   0  0  0  0  0  0  0  0  0  0  0  0
   -2.1793   -3.5427    0.0591 N   0  0  0  0  0  0  0  0  0  0  0  0
    8.7493   -2.9995    0.1387 N   0  0  0  0  0  0  0  0  0  0  0  0
    3.8434   -1.6762   -0.0639 O   0  0  0  0  0  0  0  0  0  0  0  0
    6.2426   -2.7634    0.0988 C   0  0  0  0  0  0  0  0  0  0  0  0
    7.4832   -3.6186    0.0538 C   0  0  0  0  0  0  0  0  0  0  0  0
    0.0944   -5.0427    0.2859 C   0  0  0  0  0  0  0  0  0  0  0  0
    2.6343   -5.0799    0.2147 C   0  0  0  0  0  0  0  0  0  0  0  0
   -3.4332   -1.5511   -0.0592 C   0  0  0  0  0  0  0  0  0  0  0  0
   -3.4115   -2.8780    0.0070 C   0  0  0  0  0  0  0  0  0  0  0  0
   -2.1682   -0.8366   -0.0760 C   0  0  0  0  0  0  0  0  0  0  0  0
    1.3472   -5.7603   -0.2675 C   0  0  0  0  0  0  0  0  0  0  0  0
    9.8284   -3.6767    0.1016 C   0  0  0  0  0  0  0  0  0  0  0  0
    7.3891   -4.9421   -0.0680 C   0  0  0  0  0  0  0  0  0  0  0  0
    9.7873   -5.1327   -0.0297 C   0  0  0  0  0  0  0  0  0  0  0  0
    8.6094   -5.7440   -0.1110 C   0  0  0  0  0  0  0  0  0  0  0  0
  2  1  1  0
  3  5  1  0
  3  4  1  1
  5  1  1  0
  6  4  1  0
  7  2  2  0
  8  2  1  0
  9 12  2  0
 10  4  2  0
 11  6  1  0
 12 11  1  0
 13  1  1  0
 14 18  1  0
 15 16  1  0
 16  8  2  0
 17  7  1  0
 18 13  1  0
 19  9  1  0
 20 12  1  0
 21 22  1  0
 22 20  2  0
  3 14  1  0
 15 17  2  0
 19 21  2  0
M  END
>  <Name>  (20) 
STOCK6S-36547

>  <id>  (20) 
STOCK6S-36547

>  <index>  (20) 
SC

>  <donors>  (20) 
1

>  <acceptors>  (20) 
6

>  <rotatable>  (20) 
5

>  <clogp>  (20) 
0.292

>  <rings>  (20) 
3

>  <tpsa>  (20) 
71.01

>  <iupac_name>  (20) 
N-(pyridin-2-ylmethyl)-1-(pyrimidin-2-yl)piperidine-3-carboxamide

>  <Num_H_Acceptors_Lipinski>  (20) 
6

>  <Num_H_Donors_Lipinski>  (20) 
1

>  <Molecular_Weight>  (20) 
297.35496

>  <ALogP>  (20) 
1.197

>  <Num_RotatableBonds>  (20) 
4

>  <Molecular_PolarSurfaceArea>  (20) 
71

>  <Num_H_Acceptors>  (20) 
5

>  <Num_H_Donors>  (20) 
1

>  <ADMET_Solubility>  (20) 
-2.483

>  <ADMET_Solubility_Level>  (20) 
3

>  <ADMET_Unknown_AlogP98>  (20) 
0

>  <ADMET_BBB>  (20) 
-0.848

>  <ADMET_BBB_Level>  (20) 
3

>  <ADMET_EXT_CYP2D6>  (20) 
-7.20567673208182

>  <ADMET_EXT_CYP2D6#Prediction>  (20) 
false

>  <ADMET_EXT_CYP2D6_Applicability>  (20) 
All properties and OPS components are within expected ranges.
Unknown FCFP_2 feature: -1410079687: [*]S[c]1:n:[*]:[*]:n:1

>  <ADMET_EXT_CYP2D6_Applicability#MD>  (20) 
12.8410970262148

>  <ADMET_EXT_CYP2D6_Applicability#MDpvalue>  (20) 
0.000442707643451793

>  <ADMET_EXT_Hepatotoxic>  (20) 
-4.72198598827271

>  <ADMET_EXT_Hepatotoxic#Prediction>  (20) 
false

>  <ADMET_EXT_Hepatotoxic_Applicability>  (20) 
All properties and OPS components are within expected ranges.

>  <ADMET_EXT_Hepatotoxic_Applicability#MD>  (20) 
11.4636684171055

>  <ADMET_EXT_Hepatotoxic_Applicability#MDpvalue>  (20) 
0.00128008582821552

>  <ADMET_Absorption_Level>  (20) 
0

>  <ADMET_EXT_PPB>  (20) 
-0.827228486568756

>  <ADMET_EXT_PPB#Prediction>  (20) 
true

>  <ADMET_EXT_PPB_Applicability>  (20) 
All properties and OPS components are within expected ranges.

>  <ADMET_EXT_PPB_Applicability#MD>  (20) 
11.8038063065682

>  <ADMET_EXT_PPB_Applicability#MDpvalue>  (20) 
0.143202335233207

>  <ADMET_AlogP98>  (20) 
1.197

>  <ADMET_PSA_2D>  (20) 
67.246

$$$$
STOCK6S-36623
     RDKit          3D

 31 34  0  0  0  0  0  0  0  0999 V2000
    4.0656   -4.3946   -0.0068 C   0  0  0  0  0  0  0  0  0  0  0  0
    5.3441   -2.0504    0.0120 N   0  0  0  0  0  0  0  0  0  0  0  0
    2.7286   -2.1745   -0.0078 C   0  0  0  0  0  0  0  0  0  0  0  0
    5.3644   -3.5652   -0.0074 C   0  0  0  0  0  0  0  0  0  0  0  0
    4.0361   -1.3769   -0.0108 C   0  0  0  0  0  0  0  0  0  0  0  0
    2.7276   -3.5418   -0.0050 C   0  0  0  0  0  0  0  0  0  0  0  0
    4.0369   -5.8092   -0.0023 C   0  0  0  0  0  0  0  0  0  0  0  0
    1.4246   -1.4078   -0.0032 C   0  0  0  0  0  0  0  0  0  0  0  0
    6.7273   -1.2547    0.1080 C   0  0  0  0  0  0  0  0  0  0  0  0
    0.4257   -0.8211    0.0008 N   0  0  0  0  0  0  0  0  0  0  0  0
    6.5232  -10.7546    0.0015 C   0  0  0  0  0  0  0  0  0  0  0  0
    8.1615    1.1120    0.2806 N   0  0  0  0  0  0  0  0  0  0  0  0
    6.5394   -9.3838    0.0018 C   0  0  0  0  0  0  0  0  0  0  0  0
    6.4482   -4.1554    0.0123 O   0  0  0  0  0  0  0  0  0  0  0  0
    3.9657   -0.1386    0.0102 O   0  0  0  0  0  0  0  0  0  0  0  0
    5.2542   -6.8647   -0.0002 N   0  0  0  0  0  0  0  0  0  0  0  0
    5.2643  -11.4645   -0.0013 C   0  0  0  0  0  0  0  0  0  0  0  0
    7.7101  -11.5027    0.0037 O   0  0  0  0  0  0  0  0  0  0  0  0
    5.2359  -12.8676   -0.0032 O   0  0  0  0  0  0  0  0  0  0  0  0
    6.8003    0.3819   -0.1318 C   0  0  0  0  0  0  0  0  0  0  0  0
    5.2257   -8.5071    0.0001 C   0  0  0  0  0  0  0  0  0  0  0  0
   10.6709    2.6143   -0.2598 O   0  0  0  0  0  0  0  0  0  0  0  0
    4.1194  -10.7600   -0.0020 C   0  0  0  0  0  0  0  0  0  0  0  0
    1.3894   -4.2502    0.0013 C   0  0  0  0  0  0  0  0  0  0  0  0
    4.0881   -9.2203   -0.0011 C   0  0  0  0  0  0  0  0  0  0  0  0
    9.3903    0.4642   -0.2672 C   0  0  0  0  0  0  0  0  0  0  0  0
    8.1747    2.5630   -0.1867 C   0  0  0  0  0  0  0  0  0  0  0  0
    7.7707  -12.9500   -0.0108 C   0  0  0  0  0  0  0  0  0  0  0  0
    6.3971  -13.7039    0.0113 C   0  0  0  0  0  0  0  0  0  0  0  0
    9.5038    3.3038    0.2496 C   0  0  0  0  0  0  0  0  0  0  0  0
   10.6839    1.2419    0.2147 C   0  0  0  0  0  0  0  0  0  0  0  0
  2  4  1  0
  3  6  2  0
  4  1  1  0
  5  3  1  0
  6  1  1  0
  7  1  2  0
  8  3  1  0
  9  2  1  0
 10  8  3  0
 11 13  2  0
 12 20  1  0
 13 21  1  0
 14  4  2  0
 15  5  2  0
 16  7  1  0
 17 23  2  0
 18 11  1  0
 19 17  1  0
 20  9  1  0
 21 16  1  0
 22 30  1  0
 23 25  1  0
 24  6  1  0
 25 21  2  0
 26 12  1  0
 27 12  1  0
 28 18  1  0
 29 19  1  0
 30 27  1  0
 31 26  1  0
  2  5  1  0
 11 17  1  0
 31 22  1  0
 28 29  1  0
M  END
>  <Name>  (21) 
STOCK6S-36623

>  <id>  (21) 
STOCK6S-36623

>  <index>  (21) 
SCD

>  <donors>  (21) 
1

>  <acceptors>  (21) 
9

>  <rotatable>  (21) 
5

>  <clogp>  (21) 
2.673

>  <rings>  (21) 
4

>  <tpsa>  (21) 
104.13

>  <iupac_name>  (21) 
(Z)-5-(((2,3-dihydrobenzo[b][1,4]dioxin-6-yl)amino)methylene)-4-methyl-1-(2-morpholinoethyl)-2,6-dioxo-1,2,5,6-tetrahydropyridine-3-carbonitrile

>  <Num_H_Acceptors_Lipinski>  (21) 
9

>  <Num_H_Donors_Lipinski>  (21) 
1

>  <Molecular_Weight>  (21) 
424.44976

>  <ALogP>  (21) 
0.997

>  <Num_RotatableBonds>  (21) 
5

>  <Molecular_PolarSurfaceArea>  (21) 
104.13

>  <Num_H_Acceptors>  (21) 
8

>  <Num_H_Donors>  (21) 
1

>  <ADMET_Solubility>  (21) 
-3.266

>  <ADMET_Solubility_Level>  (21) 
3

>  <ADMET_Unknown_AlogP98>  (21) 
0

>  <ADMET_BBB>  (21) 
-1.327

>  <ADMET_BBB_Level>  (21) 
3

>  <ADMET_EXT_CYP2D6>  (21) 
-6.00691033948514

>  <ADMET_EXT_CYP2D6#Prediction>  (21) 
false

>  <ADMET_EXT_CYP2D6_Applicability>  (21) 
All properties and OPS components are within expected ranges.

>  <ADMET_EXT_CYP2D6_Applicability#MD>  (21) 
11.8752075549491

>  <ADMET_EXT_CYP2D6_Applicability#MDpvalue>  (21) 
0.00385127798454185

>  <ADMET_EXT_Hepatotoxic>  (21) 
-6.7222830649852

>  <ADMET_EXT_Hepatotoxic#Prediction>  (21) 
false

>  <ADMET_EXT_Hepatotoxic_Applicability>  (21) 
All properties and OPS components are within expected ranges.

>  <ADMET_EXT_Hepatotoxic_Applicability#MD>  (21) 
12.088137016593

>  <ADMET_EXT_Hepatotoxic_Applicability#MDpvalue>  (21) 
0.000112396872920434

>  <ADMET_Absorption_Level>  (21) 
0

>  <ADMET_EXT_PPB>  (21) 
-6.75795654436683

>  <ADMET_EXT_PPB#Prediction>  (21) 
false

>  <ADMET_EXT_PPB_Applicability>  (21) 
All properties and OPS components are within expected ranges.

>  <ADMET_EXT_PPB_Applicability#MD>  (21) 
14.1453847646631

>  <ADMET_EXT_PPB_Applicability#MDpvalue>  (21) 
5.33668724078624e-05

>  <ADMET_AlogP98>  (21) 
1.521

>  <ADMET_PSA_2D>  (21) 
103.842

$$$$
STOCK6S-36703
     RDKit          3D

 27 28  0  0  0  0  0  0  0  0999 V2000
    6.6679   -2.1394    0.3867 C   0  0  2  0  0  0  0  0  0  0  0  0
    6.8214   -0.6957   -0.1697 N   0  0  0  0  0  0  0  0  0  0  0  0
    7.9159   -3.0642    0.1703 C   0  0  0  0  0  0  0  0  0  0  0  0
    5.4196   -2.9678   -0.1465 C   0  0  0  0  0  0  0  0  0  0  0  0
    2.9806   -2.9610   -0.0642 C   0  0  0  0  0  0  0  0  0  0  0  0
    7.8331   -4.4252    0.1771 O   0  0  0  0  0  0  0  0  0  0  0  0
    4.1391   -2.3240    0.0891 N   0  0  0  0  0  0  0  0  0  0  0  0
    9.1794   -2.7055   -0.0577 C   0  0  0  0  0  0  0  0  0  0  0  0
    9.0886   -4.9406   -0.0479 C   0  0  0  0  0  0  0  0  0  0  0  0
    9.9426   -3.9294   -0.1964 C   0  0  0  0  0  0  0  0  0  0  0  0
    2.9652   -4.1570   -0.4008 O   0  0  0  0  0  0  0  0  0  0  0  0
    6.8158    2.1965    0.0553 O   0  0  0  0  0  0  0  0  0  0  0  0
    0.5528   -3.1022   -0.0038 O   0  0  0  0  0  0  0  0  0  0  0  0
    1.6800   -2.2192    0.1483 C   0  0  0  0  0  0  0  0  0  0  0  0
   -0.6798   -2.4058    0.0234 C   0  0  0  0  0  0  0  0  0  0  0  0
   -3.1417   -1.0392    0.0558 C   0  0  0  0  0  0  0  0  0  0  0  0
    1.6451    1.4644   -0.0138 Cl  0  0  0  0  0  0  0  0  0  0  0  0
   -0.7147   -1.0697    0.1517 C   0  0  0  0  0  0  0  0  0  0  0  0
   -1.9377   -3.1462   -0.0983 C   0  0  0  0  0  0  0  0  0  0  0  0
   -3.1064   -2.5065   -0.0831 C   0  0  0  0  0  0  0  0  0  0  0  0
   -2.0038   -0.3646    0.1672 C   0  0  0  0  0  0  0  0  0  0  0  0
    7.8927    0.0714    0.5386 C   0  0  0  0  0  0  0  0  0  0  0  0
    5.5845    0.0999    0.0037 C   0  0  0  0  0  0  0  0  0  0  0  0
   -4.3677   -0.3485    0.0709 O   0  0  0  0  0  0  0  0  0  0  0  0
    5.7561    1.5027   -0.6129 C   0  0  0  0  0  0  0  0  0  0  0  0
    8.0443    1.4743   -0.0842 C   0  0  0  0  0  0  0  0  0  0  0  0
   -5.4773   -1.2486   -0.0594 C   0  0  0  0  0  0  0  0  0  0  0  0
  2  1  1  0
  3  1  1  0
  1  4  1  6
  5  7  1  0
  6  3  1  0
  7  4  1  0
  8  3  2  0
  9  6  1  0
 10  8  1  0
 11  5  2  0
 12 26  1  0
 13 14  1  0
 14  5  1  0
 15 13  1  0
 16 21  2  0
 18 15  2  0
 19 15  1  0
 20 19  2  0
 21 18  1  0
 22  2  1  0
 23  2  1  0
 24 16  1  0
 25 23  1  0
 26 22  1  0
 27 24  1  0
 10  9  2  0
 12 25  1  0
 16 20  1  0
M  END
>  <Name>  (22) 
STOCK6S-36703

>  <id>  (22) 
STOCK6S-36703

>  <saltdata>  (22) 
HCl

>  <index>  (22) 
SCD

>  <donors>  (22) 
1

>  <acceptors>  (22) 
7

>  <rotatable>  (22) 
9

>  <clogp>  (22) 
2.141

>  <rings>  (22) 
3

>  <tpsa>  (22) 
73.17

>  <iupac_name>  (22) 
N-(2-(furan-2-yl)-2-morpholinoethyl)-2-(4-methoxyphenoxy)acetamide hydrochloride

>  <Num_H_Acceptors_Lipinski>  (22) 
7

>  <Num_H_Donors_Lipinski>  (22) 
1

>  <Molecular_Weight>  (22) 
396.8652

>  <ALogP>  (22) 
1.966

>  <Num_RotatableBonds>  (22) 
8

>  <Molecular_PolarSurfaceArea>  (22) 
73.17

>  <Num_H_Acceptors>  (22) 
5

>  <Num_H_Donors>  (22) 
1

>  <ADMET_Solubility>  (22) 
-2.637

>  <ADMET_Solubility_Level>  (22) 
3

>  <ADMET_Unknown_AlogP98>  (22) 
0

>  <ADMET_BBB>  (22) 
-0.817

>  <ADMET_BBB_Level>  (22) 
3

>  <ADMET_EXT_CYP2D6>  (22) 
-8.69050870040518

>  <ADMET_EXT_CYP2D6#Prediction>  (22) 
false

>  <ADMET_EXT_CYP2D6_Applicability>  (22) 
All properties and OPS components are within expected ranges.

>  <ADMET_EXT_CYP2D6_Applicability#MD>  (22) 
21.4508100300535

>  <ADMET_EXT_CYP2D6_Applicability#MDpvalue>  (22) 
8.17854320432502e-14

>  <ADMET_EXT_Hepatotoxic>  (22) 
-5.57097676120241

>  <ADMET_EXT_Hepatotoxic#Prediction>  (22) 
false

>  <ADMET_EXT_Hepatotoxic_Applicability>  (22) 
All properties and OPS components are within expected ranges.

>  <ADMET_EXT_Hepatotoxic_Applicability#MD>  (22) 
14.1728394936972

>  <ADMET_EXT_Hepatotoxic_Applicability#MDpvalue>  (22) 
3.77418471633764e-09

>  <ADMET_Absorption_Level>  (22) 
0

>  <ADMET_EXT_PPB>  (22) 
-8.34201544085935

>  <ADMET_EXT_PPB#Prediction>  (22) 
false

>  <ADMET_EXT_PPB_Applicability>  (22) 
All properties and OPS components are within expected ranges.

>  <ADMET_EXT_PPB_Applicability#MD>  (22) 
13.9343677355158

>  <ADMET_EXT_PPB_Applicability#MDpvalue>  (22) 
0.000140183226844959

>  <ADMET_AlogP98>  (22) 
1.584

>  <ADMET_PSA_2D>  (22) 
72.808

$$$$
STOCK6S-37387
     RDKit          3D

 26 28  0  0  0  0  0  0  0  0999 V2000
    8.6386   -0.9819   -0.0005 N   0  0  0  0  0  0  0  0  0  0  0  0
    9.9610   -0.4527    0.0275 C   0  0  0  0  0  0  0  0  0  0  0  0
    8.6584   -2.4458   -0.0233 C   0  0  0  0  0  0  0  0  0  0  0  0
   10.0323   -3.0240    0.0046 C   0  0  0  0  0  0  0  0  0  0  0  0
   11.0866   -1.7200    0.0307 S   0  0  0  0  0  0  0  0  0  0  0  0
    7.4219   -0.0959   -0.0150 C   0  0  0  0  0  0  0  0  0  0  0  0
    6.0134   -0.7621    0.0188 C   0  0  0  0  0  0  0  0  0  0  0  0
    4.8503   -0.0223   -0.0832 N   0  0  0  0  0  0  0  0  0  0  0  0
   10.4313   -4.3208    0.0128 C   0  0  0  0  0  0  0  0  0  0  0  0
    2.4062    1.3542   -0.3152 N   0  0  0  0  0  0  0  0  0  0  0  0
   10.2462    0.7500    0.0444 O   0  0  0  0  0  0  0  0  0  0  0  0
    7.6557   -3.1238   -0.0626 O   0  0  0  0  0  0  0  0  0  0  0  0
    5.8548   -1.9749    0.1128 O   0  0  0  0  0  0  0  0  0  0  0  0
    3.6072   -0.7693   -0.1371 C   0  0  0  0  0  0  0  0  0  0  0  0
    4.8874    1.4155   -0.2307 C   0  0  0  0  0  0  0  0  0  0  0  0
    9.5966   -5.6073    0.0018 C   0  0  0  0  0  0  0  0  0  0  0  0
    2.3968    0.0435    0.3189 C   0  0  0  0  0  0  0  0  0  0  0  0
    3.5657    2.0735    0.2289 C   0  0  0  0  0  0  0  0  0  0  0  0
    8.1273   -5.6340    0.0027 C   0  0  0  0  0  0  0  0  0  0  0  0
    7.4358   -6.7691   -0.0018 C   0  0  0  0  0  0  0  0  0  0  0  0
    6.0226   -6.7584   -0.0012 O   0  0  0  0  0  0  0  0  0  0  0  0
    1.1822    2.0597    0.0784 C   0  0  0  0  0  0  0  0  0  0  0  0
    9.4817   -8.0423   -0.0079 C   0  0  0  0  0  0  0  0  0  0  0  0
   10.2370   -6.7767   -0.0021 C   0  0  0  0  0  0  0  0  0  0  0  0
    8.1493   -8.0358   -0.0076 C   0  0  0  0  0  0  0  0  0  0  0  0
    5.4964   -5.4180    0.0042 C   0  0  0  0  0  0  0  0  0  0  0  0
  2  1  1  0
  3  1  1  0
  4  3  1  0
  5  2  1  0
  6  1  1  0
  7  6  1  0
  8  7  1  0
  9  4  2  0
 10 18  1  0
 11  2  2  0
 12  3  2  0
 13  7  2  0
 14  8  1  0
 15  8  1  0
 16  9  1  0
 17 14  1  0
 18 15  1  0
 19 16  2  0
 20 19  1  0
 21 20  1  0
 22 10  1  0
 23 24  2  0
 24 16  1  0
 25 23  1  0
 26 21  1  0
  5  4  1  0
 10 17  1  0
 25 20  2  0
M  END
>  <Name>  (23) 
STOCK6S-37387

>  <id>  (23) 
STOCK6S-37387

>  <index>  (23) 
SCD

>  <donors>  (23) 
0

>  <acceptors>  (23) 
7

>  <rotatable>  (23) 
5

>  <clogp>  (23) 
2.373

>  <rings>  (23) 
3

>  <tpsa>  (23) 
70.16

>  <iupac_name>  (23) 
(E)-5-(3-methoxybenzylidene)-3-(2-(4-methylpiperazin-1-yl)-2-oxoethyl)thiazolidine-2,4-dione

>  <Num_H_Acceptors_Lipinski>  (23) 
7

>  <Num_H_Donors_Lipinski>  (23) 
0

>  <Molecular_Weight>  (23) 
375.44204

>  <ALogP>  (23) 
1.354

>  <Num_RotatableBonds>  (23) 
4

>  <Molecular_PolarSurfaceArea>  (23) 
95.46

>  <Num_H_Acceptors>  (23) 
6

>  <Num_H_Donors>  (23) 
0

>  <ADMET_Solubility>  (23) 
-3.184

>  <ADMET_Solubility_Level>  (23) 
3

>  <ADMET_Unknown_AlogP98>  (23) 
0

>  <ADMET_BBB>  (23) 
-0.695

>  <ADMET_BBB_Level>  (23) 
3

>  <ADMET_EXT_CYP2D6>  (23) 
-12.010357910263

>  <ADMET_EXT_CYP2D6#Prediction>  (23) 
false

>  <ADMET_EXT_CYP2D6_Applicability>  (23) 
OPS PC9 out of range. Value: 4.8692. Training min, max, SD, explained variance: -4.6974, 3.8454, 1.569, 0.0322.

>  <ADMET_EXT_CYP2D6_Applicability#MD>  (23) 
11.2847908179

>  <ADMET_EXT_CYP2D6_Applicability#MDpvalue>  (23) 
0.0128619021711064

>  <ADMET_EXT_Hepatotoxic>  (23) 
-6.97475551275988

>  <ADMET_EXT_Hepatotoxic#Prediction>  (23) 
false

>  <ADMET_EXT_Hepatotoxic_Applicability>  (23) 
All properties and OPS components are within expected ranges.

>  <ADMET_EXT_Hepatotoxic_Applicability#MD>  (23) 
11.3650808975783

>  <ADMET_EXT_Hepatotoxic_Applicability#MDpvalue>  (23) 
0.00182063774042574

>  <ADMET_Absorption_Level>  (23) 
0

>  <ADMET_EXT_PPB>  (23) 
0.255752046770872

>  <ADMET_EXT_PPB#Prediction>  (23) 
true

>  <ADMET_EXT_PPB_Applicability>  (23) 
All properties and OPS components are within expected ranges.

>  <ADMET_EXT_PPB_Applicability#MD>  (23) 
12.9543168243433

>  <ADMET_EXT_PPB_Applicability#MDpvalue>  (23) 
0.00654985615638396

>  <ADMET_AlogP98>  (23) 
1.879

>  <ADMET_PSA_2D>  (23) 
70.889

$$$$
STOCK6S-37985
     RDKit          3D

 18 19  0  0  0  0  0  0  0  0999 V2000
    5.4581   -3.3889   -0.1132 C   0  0  0  0  0  0  0  0  0  0  0  0
   10.0867   -2.9927   -0.4774 S   0  0  0  0  0  0  0  0  0  0  0  0
    6.2870   -2.2680    0.1165 N   0  0  0  0  0  0  0  0  0  0  0  0
    7.6232   -2.5072   -0.4279 C   0  0  2  0  0  0  0  0  0  0  0  0
    4.2000   -3.4160    0.1718 N   0  0  0  0  0  0  0  0  0  0  0  0
    7.9463   -3.9997   -0.5496 C   0  0  1  0  0  0  0  0  0  0  0  0
    6.3768   -4.6378   -0.8218 S   0  0  0  0  0  0  0  0  0  0  0  0
    8.8755   -1.7094   -0.0231 C   0  0  0  0  0  0  0  0  0  0  0  0
    9.1062   -3.9898   -1.5938 C   0  0  0  0  0  0  0  0  0  0  0  0
    3.4310   -4.5678   -0.0497 C   0  0  0  0  0  0  0  0  0  0  0  0
   11.4282   -2.4542   -0.9401 O   0  0  0  0  0  0  0  0  0  0  0  0
   10.2765   -3.9368    0.6920 O   0  0  0  0  0  0  0  0  0  0  0  0
    3.9495   -5.5972   -0.4668 O   0  0  0  0  0  0  0  0  0  0  0  0
    1.9242   -4.4761    0.1234 C   0  0  0  0  0  0  0  0  0  0  0  0
    5.8269   -0.9964    0.5792 C   0  0  0  0  0  0  0  0  0  0  0  0
    1.2232   -5.8223   -0.2107 C   0  0  0  0  0  0  0  0  0  0  0  0
   -0.3016   -5.6298   -0.1319 C   0  0  0  0  0  0  0  0  0  0  0  0
    1.6355   -6.9225    0.7950 C   0  0  0  0  0  0  0  0  0  0  0  0
  2  9  1  0
  3  1  1  0
  4  3  1  0
  5  1  2  0
  6  7  1  0
  7  1  1  0
  4  8  1  1
  6  9  1  6
 10  5  1  0
 11  2  2  0
 12  2  2  0
 13 10  2  0
 14 10  1  0
 15  3  1  0
 16 14  1  0
 17 16  1  0
 18 16  1  0
  6  4  1  0
  2  8  1  0
M  END
>  <Name>  (24) 
STOCK6S-37985

>  <id>  (24) 
STOCK6S-37985

>  <index>  (24) 
SCD

>  <donors>  (24) 
0

>  <acceptors>  (24) 
5

>  <rotatable>  (24) 
3

>  <clogp>  (24) 
0.399

>  <rings>  (24) 
2

>  <tpsa>  (24) 
66.81

>  <iupac_name>  (24) 
(Z)-3-methyl-N-(3-methyl-5,5-dioxidotetrahydrothieno[3,4-d]thiazol-2(3H)-ylidene)butanamide

>  <Num_H_Acceptors_Lipinski>  (24) 
5

>  <Num_H_Donors_Lipinski>  (24) 
0

>  <Molecular_Weight>  (24) 
290.40222

>  <ALogP>  (24) 
1.493

>  <Num_RotatableBonds>  (24) 
2

>  <Molecular_PolarSurfaceArea>  (24) 
100.48

>  <Num_H_Acceptors>  (24) 
6

>  <Num_H_Donors>  (24) 
0

>  <ADMET_Solubility>  (24) 
-2.77

>  <ADMET_Solubility_Level>  (24) 
3

>  <ADMET_Unknown_AlogP98>  (24) 
0

>  <ADMET_BBB>  (24) 
-0.746

>  <ADMET_BBB_Level>  (24) 
3

>  <ADMET_EXT_CYP2D6>  (24) 
-9.76273333325529

>  <ADMET_EXT_CYP2D6#Prediction>  (24) 
false

>  <ADMET_EXT_CYP2D6_Applicability>  (24) 
All properties and OPS components are within expected ranges.

>  <ADMET_EXT_CYP2D6_Applicability#MD>  (24) 
13.4902026164381

>  <ADMET_EXT_CYP2D6_Applicability#MDpvalue>  (24) 
9.3466732919315e-05

>  <ADMET_EXT_Hepatotoxic>  (24) 
-4.37153671071903

>  <ADMET_EXT_Hepatotoxic#Prediction>  (24) 
false

>  <ADMET_EXT_Hepatotoxic_Applicability>  (24) 
All properties and OPS components are within expected ranges.
Unknown FCFP_2 feature: 1018852919: O=S1(=O)C[*][*]C1

>  <ADMET_EXT_Hepatotoxic_Applicability#MD>  (24) 
9.42079091277516

>  <ADMET_EXT_Hepatotoxic_Applicability#MDpvalue>  (24) 
0.262378184222397

>  <ADMET_Absorption_Level>  (24) 
0

>  <ADMET_EXT_PPB>  (24) 
-5.97297778644706

>  <ADMET_EXT_PPB#Prediction>  (24) 
false

>  <ADMET_EXT_PPB_Applicability>  (24) 
All properties and OPS components are within expected ranges.

>  <ADMET_EXT_PPB_Applicability#MD>  (24) 
13.1912337825108

>  <ADMET_EXT_PPB_Applicability#MDpvalue>  (24) 
0.00285656986012582

>  <ADMET_AlogP98>  (24) 
1.493

>  <ADMET_PSA_2D>  (24) 
66.578

$$$$
STOCK6S-41011
     RDKit          3D

 18 19  0  0  0  0  0  0  0  0999 V2000
    1.0525   -4.2273    0.1138 N   0  0  0  0  0  0  0  0  0  0  0  0
   -0.1656   -3.5494    0.0547 C   0  0  0  0  0  0  0  0  0  0  0  0
    3.4868   -4.2382   -0.3609 C   0  0  2  0  0  0  0  0  0  0  0  0
    4.7649   -3.4829   -0.1483 C   0  0  0  0  0  0  0  0  0  0  0  0
    2.2849   -3.4633    0.2046 C   0  0  0  0  0  0  0  0  0  0  0  0
   -0.1766   -2.1426   -0.0070 N   0  0  0  0  0  0  0  0  0  0  0  0
   -1.2525   -4.2119    0.0569 N   0  0  0  0  0  0  0  0  0  0  0  0
    4.7441   -2.2535   -0.0209 O   0  0  0  0  0  0  0  0  0  0  0  0
    5.9214   -4.1380   -0.1070 N   0  0  0  0  0  0  0  0  0  0  0  0
    1.0412   -5.6753    0.2790 C   0  0  0  0  0  0  0  0  0  0  0  0
    3.5710   -5.6669    0.1593 C   0  0  0  0  0  0  0  0  0  0  0  0
   -2.5308   -2.2371   -0.0602 C   0  0  0  0  0  0  0  0  0  0  0  0
   -2.4909   -3.5635   -0.0017 C   0  0  0  0  0  0  0  0  0  0  0  0
   -1.2758   -1.5043   -0.0615 C   0  0  0  0  0  0  0  0  0  0  0  0
    2.2913   -6.3599   -0.3145 C   0  0  0  0  0  0  0  0  0  0  0  0
    9.5599   -3.6878    0.1558 O   0  0  0  0  0  0  0  0  0  0  0  0
    7.1489   -3.4216    0.0865 C   0  0  0  0  0  0  0  0  0  0  0  0
    8.3329   -4.3994   -0.0258 C   0  0  0  0  0  0  0  0  0  0  0  0
  2  1  1  0
  3  5  1  0
  3  4  1  1
  5  1  1  0
  6  2  2  0
  7  2  1  0
  8  4  2  0
  9  4  1  0
 10  1  1  0
 11 15  1  0
 12 13  1  0
 13  7  2  0
 14  6  1  0
 15 10  1  0
 16 18  1  0
 17  9  1  0
 18 17  1  0
  3 11  1  0
 12 14  2  0
M  END
>  <Name>  (25) 
STOCK6S-41011

>  <id>  (25) 
STOCK6S-41011

>  <index>  (25) 
SC

>  <donors>  (25) 
2

>  <acceptors>  (25) 
6

>  <rotatable>  (25) 
5

>  <clogp>  (25) 
-0.46

>  <rings>  (25) 
2

>  <tpsa>  (25) 
78.35

>  <iupac_name>  (25) 
N-(2-hydroxyethyl)-1-(pyrimidin-2-yl)piperidine-3-carboxamide

>  <Num_H_Acceptors_Lipinski>  (25) 
6

>  <Num_H_Donors_Lipinski>  (25) 
2

>  <Molecular_Weight>  (25) 
250.29692

>  <ALogP>  (25) 
0.01

>  <Num_RotatableBonds>  (25) 
4

>  <Molecular_PolarSurfaceArea>  (25) 
78.35

>  <Num_H_Acceptors>  (25) 
5

>  <Num_H_Donors>  (25) 
2

>  <ADMET_Solubility>  (25) 
-0.792

>  <ADMET_Solubility_Level>  (25) 
4

>  <ADMET_Unknown_AlogP98>  (25) 
0

>  <ADMET_BBB>  (25) 
-1.366

>  <ADMET_BBB_Level>  (25) 
3

>  <ADMET_EXT_CYP2D6>  (25) 
-7.58187205893365

>  <ADMET_EXT_CYP2D6#Prediction>  (25) 
false

>  <ADMET_EXT_CYP2D6_Applicability>  (25) 
All properties and OPS components are within expected ranges.
Unknown FCFP_2 feature: -1410079687: [*]S[c]1:n:[*]:[*]:n:1

>  <ADMET_EXT_CYP2D6_Applicability#MD>  (25) 
11.1998434418064

>  <ADMET_EXT_CYP2D6_Applicability#MDpvalue>  (25) 
0.015165786598786

>  <ADMET_EXT_Hepatotoxic>  (25) 
-4.61944419743723

>  <ADMET_EXT_Hepatotoxic#Prediction>  (25) 
false

>  <ADMET_EXT_Hepatotoxic_Applicability>  (25) 
All properties and OPS components are within expected ranges.

>  <ADMET_EXT_Hepatotoxic_Applicability#MD>  (25) 
11.2704927829227

>  <ADMET_EXT_Hepatotoxic_Applicability#MDpvalue>  (25) 
0.00253117755516711

>  <ADMET_Absorption_Level>  (25) 
0

>  <ADMET_EXT_PPB>  (25) 
-2.81388799126961

>  <ADMET_EXT_PPB#Prediction>  (25) 
false

>  <ADMET_EXT_PPB_Applicability>  (25) 
All properties and OPS components are within expected ranges.

>  <ADMET_EXT_PPB_Applicability#MD>  (25) 
12.3546594177922

>  <ADMET_EXT_PPB_Applicability#MDpvalue>  (25) 
0.0398504687033761

>  <ADMET_AlogP98>  (25) 
0.01

>  <ADMET_PSA_2D>  (25) 
76.801

$$$$
STOCK6S-41668
     RDKit          3D

 32 36  0  0  0  0  0  0  0  0999 V2000
    5.8086   -3.2086    0.0371 C   0  0  0  0  0  0  0  0  0  0  0  0
    5.8838   -1.9082   -0.0376 C   0  0  0  0  0  0  0  0  0  0  0  0
    3.4343   -1.6610   -0.0627 N   0  0  0  0  0  0  0  0  0  0  0  0
    7.1265   -3.7432    0.1087 N   0  0  0  0  0  0  0  0  0  0  0  0
    7.9157   -2.7229    0.0685 C   0  0  0  0  0  0  0  0  0  0  0  0
    4.5964   -3.8738    0.0523 N   0  0  0  0  0  0  0  0  0  0  0  0
    7.1951   -1.5788   -0.0259 N   0  0  0  0  0  0  0  0  0  0  0  0
    3.3938   -3.1035    0.0098 C   0  0  0  0  0  0  0  0  0  0  0  0
    4.7412   -1.0496   -0.1083 C   0  0  0  0  0  0  0  0  0  0  0  0
    9.3218   -2.6686    0.1303 N   0  0  0  0  0  0  0  0  0  0  0  0
    9.9113   -1.4555    0.0946 N   0  0  0  0  0  0  0  0  0  0  0  0
    9.2720   -0.3487    0.0017 C   0  0  0  0  0  0  0  0  0  0  0  0
    7.7648   -0.2802   -0.0765 C   0  0  0  0  0  0  0  0  0  0  0  0
    2.0853   -0.9549   -0.0962 C   0  0  0  0  0  0  0  0  0  0  0  0
   10.1869   -3.8209    0.3374 C   0  0  0  0  0  0  0  0  0  0  0  0
    2.3012   -3.6815    0.0353 O   0  0  0  0  0  0  0  0  0  0  0  0
    4.9244    0.1580   -0.1886 O   0  0  0  0  0  0  0  0  0  0  0  0
   10.5908   -6.2224    0.2535 N   0  0  0  0  0  0  0  0  0  0  0  0
    4.5481   -5.3069    0.1182 C   0  0  0  0  0  0  0  0  0  0  0  0
    9.6254   -5.1782   -0.1194 C   0  0  0  0  0  0  0  0  0  0  0  0
   12.3798   -8.3579   -0.3454 O   0  0  0  0  0  0  0  0  0  0  0  0
    1.8388    0.6015   -0.0355 C   0  0  0  0  0  0  0  0  0  0  0  0
   10.0465    0.9350   -0.0269 C   0  0  0  0  0  0  0  0  0  0  0  0
   10.0872   -7.5409   -0.1477 C   0  0  0  0  0  0  0  0  0  0  0  0
   11.8932   -5.9726   -0.3933 C   0  0  0  0  0  0  0  0  0  0  0  0
   12.8859   -7.0692    0.0439 C   0  0  0  0  0  0  0  0  0  0  0  0
   11.1101   -8.6143    0.2839 C   0  0  0  0  0  0  0  0  0  0  0  0
    2.7959    1.5225    0.0517 C   0  0  0  0  0  0  0  0  0  0  0  0
    0.4452    1.0683   -0.0773 C   0  0  0  0  0  0  0  0  0  0  0  0
    0.1599    2.3708   -0.0345 C   0  0  0  0  0  0  0  0  0  0  0  0
    2.4946    2.9491    0.0964 C   0  0  0  0  0  0  0  0  0  0  0  0
    1.2324    3.3582    0.0542 C   0  0  0  0  0  0  0  0  0  0  0  0
  2  1  2  0
  3  8  1  0
  4  1  1  0
  5  4  2  0
  6  1  1  0
  7  2  1  0
  8  6  1  0
  9  2  1  0
 10  5  1  0
 11 10  1  0
 12 13  1  0
 13  7  1  0
 14  3  1  0
 15 10  1  0
 16  8  2  0
 17  9  2  0
 18 20  1  0
 19  6  1  0
 20 15  1  0
 21 26  1  0
 22 14  1  0
 23 12  1  0
 24 18  1  0
 25 18  1  0
 26 25  1  0
 27 24  1  0
 28 22  2  0
 29 22  1  0
 30 29  2  0
 31 28  1  0
 32 30  1  0
  3  9  1  0
  5  7  1  0
 12 11  2  0
 32 31  2  0
 21 27  1  0
M  END
>  <Name>  (26) 
STOCK6S-41668

>  <id>  (26) 
STOCK6S-41668

>  <index>  (26) 
SCD

>  <donors>  (26) 
0

>  <acceptors>  (26) 
10

>  <rotatable>  (26) 
5

>  <clogp>  (26) 
2.354

>  <rings>  (26) 
5

>  <tpsa>  (26) 
89.89

>  <iupac_name>  (26) 
7-benzyl-3,9-dimethyl-1-(2-morpholinoethyl)-7,9-dihydro-[1,2,4]triazino[3,4-f]purine-6,8(1H,4H)-dione

>  <Num_H_Acceptors_Lipinski>  (26) 
10

>  <Num_H_Donors_Lipinski>  (26) 
0

>  <Molecular_Weight>  (26) 
437.49488

>  <ALogP>  (26) 
1.669

>  <Num_RotatableBonds>  (26) 
5

>  <Molecular_PolarSurfaceArea>  (26) 
86.51

>  <Num_H_Acceptors>  (26) 
7

>  <Num_H_Donors>  (26) 
0

>  <ADMET_Solubility>  (26) 
-3.759

>  <ADMET_Solubility_Level>  (26) 
3

>  <ADMET_Unknown_AlogP98>  (26) 
1

>  <ADMET_BBB>  (26) 
-0.858

>  <ADMET_BBB_Level>  (26) 
3

>  <ADMET_EXT_CYP2D6>  (26) 
-4.05758464865327

>  <ADMET_EXT_CYP2D6#Prediction>  (26) 
false

>  <ADMET_EXT_CYP2D6_Applicability>  (26) 
All properties and OPS components are within expected ranges.
Unknown FCFP_2 feature: -1410079687: [*]S[c]1:n:[*]:[*]:n:1
Unknown FCFP_2 feature: 675799546: [*]=CN(N=[*])[c](:[*]):[*]

>  <ADMET_EXT_CYP2D6_Applicability#MD>  (26) 
15.7300497793852

>  <ADMET_EXT_CYP2D6_Applicability#MDpvalue>  (26) 
3.0090366133565e-07

>  <ADMET_EXT_Hepatotoxic>  (26) 
-12.8319032447689

>  <ADMET_EXT_Hepatotoxic#Prediction>  (26) 
false

>  <ADMET_EXT_Hepatotoxic_Applicability>  (26) 
All properties and OPS components are within expected ranges.

>  <ADMET_EXT_Hepatotoxic_Applicability#MD>  (26) 
12.6149343895001

>  <ADMET_EXT_Hepatotoxic_Applicability#MDpvalue>  (26) 
1.11993415286557e-05

>  <ADMET_Absorption_Level>  (26) 
0

>  <ADMET_EXT_PPB>  (26) 
-11.5445808765845

>  <ADMET_EXT_PPB#Prediction>  (26) 
false

>  <ADMET_EXT_PPB_Applicability>  (26) 
All properties and OPS components are within expected ranges.

>  <ADMET_EXT_PPB_Applicability#MD>  (26) 
18.3533634955606

>  <ADMET_EXT_PPB_Applicability#MDpvalue>  (26) 
4.9000275583995e-17

>  <ADMET_AlogP98>  (26) 
2.067

>  <ADMET_PSA_2D>  (26) 
84.874

$$$$
STOCK6S-42169
     RDKit          3D

 27 29  0  0  0  0  0  0  0  0999 V2000
   -3.7368   -4.8351    0.0163 N   0  0  0  0  0  0  0  0  0  0  0  0
   -2.9411   -5.9755   -0.2195 C   0  0  0  0  0  0  0  0  0  0  0  0
   -2.8644   -3.8037    0.3571 C   0  0  0  0  0  0  0  0  0  0  0  0
   -1.5912   -5.6990    0.0452 N   0  0  0  0  0  0  0  0  0  0  0  0
   -1.4542   -4.3369    0.5263 C   0  0  1  0  0  0  0  0  0  0  0  0
   -5.2305   -4.6313   -0.0810 C   0  0  2  0  0  0  0  0  0  0  0  0
   -3.3346   -7.0826   -0.5930 O   0  0  0  0  0  0  0  0  0  0  0  0
    2.2242   -3.4508   -0.2138 C   0  0  0  0  0  0  0  0  0  0  0  0
   -3.2077   -2.6446    0.6052 O   0  0  0  0  0  0  0  0  0  0  0  0
    3.4546   -3.9326    0.0014 N   0  0  0  0  0  0  0  0  0  0  0  0
    7.1271   -3.1925   -0.2431 N   0  0  0  0  0  0  0  0  0  0  0  0
   -0.3216   -3.5255   -0.1483 C   0  0  0  0  0  0  0  0  0  0  0  0
   -6.2377   -5.8261   -0.0596 C   0  0  0  0  0  0  0  0  0  0  0  0
    2.0816   -2.3157   -0.6805 O   0  0  0  0  0  0  0  0  0  0  0  0
    1.0131   -4.2711    0.1626 C   0  0  0  0  0  0  0  0  0  0  0  0
    5.8984   -3.8843   -0.1532 C   0  0  0  0  0  0  0  0  0  0  0  0
    4.6043   -3.1147   -0.3037 C   0  0  0  0  0  0  0  0  0  0  0  0
   -5.5435   -3.7867   -1.3292 C   0  0  0  0  0  0  0  0  0  0  0  0
    8.2447   -3.7951   -0.1264 C   0  0  0  0  0  0  0  0  0  0  0  0
   -7.6616   -5.5242   -0.2990 C   0  0  0  0  0  0  0  0  0  0  0  0
   -5.8923   -7.0888    0.1817 C   0  0  0  0  0  0  0  0  0  0  0  0
    5.8842   -5.2002    0.0581 C   0  0  0  0  0  0  0  0  0  0  0  0
    8.2906   -5.2387    0.1037 C   0  0  0  0  0  0  0  0  0  0  0  0
   -6.8942   -8.1600    0.1871 C   0  0  0  0  0  0  0  0  0  0  0  0
   -8.5758   -6.4951   -0.2864 C   0  0  0  0  0  0  0  0  0  0  0  0
    7.1509   -5.9177    0.1928 C   0  0  0  0  0  0  0  0  0  0  0  0
   -8.1745   -7.8763   -0.0373 C   0  0  0  0  0  0  0  0  0  0  0  0
  2  1  1  0
  3  1  1  0
  4  2  1  0
  5  3  1  0
  6  1  1  0
  7  2  2  0
  8 15  1  0
  9  3  2  0
 10  8  1  0
 11 16  2  0
  5 12  1  6
 13  6  1  0
 14  8  2  0
 15 12  1  0
 16 17  1  0
 17 10  1  0
  6 18  1  6
 19 11  1  0
 20 13  2  0
 21 13  1  0
 22 16  1  0
 23 26  1  0
 24 21  2  0
 25 20  1  0
 26 22  2  0
 27 24  1  0
  5  4  1  0
 27 25  2  0
 19 23  2  0
M  END
>  <Name>  (27) 
STOCK6S-42169

>  <id>  (27) 
STOCK6S-42169

>  <index>  (27) 
RSC

>  <donors>  (27) 
2

>  <acceptors>  (27) 
7

>  <rotatable>  (27) 
8

>  <clogp>  (27) 
0.29

>  <rings>  (27) 
3

>  <tpsa>  (27) 
91.4

>  <iupac_name>  (27) 
3-((S)-2,5-dioxo-1-((S)-1-phenylethyl)imidazolidin-4-yl)-N-(pyridin-2-ylmethyl)propanamide

>  <Num_H_Acceptors_Lipinski>  (27) 
7

>  <Num_H_Donors_Lipinski>  (27) 
2

>  <Molecular_Weight>  (27) 
366.41368

>  <ALogP>  (27) 
1.419

>  <Num_RotatableBonds>  (27) 
7

>  <Molecular_PolarSurfaceArea>  (27) 
91.4

>  <Num_H_Acceptors>  (27) 
4

>  <Num_H_Donors>  (27) 
2

>  <ADMET_Solubility>  (27) 
-3.073

>  <ADMET_Solubility_Level>  (27) 
3

>  <ADMET_Unknown_AlogP98>  (27) 
0

>  <ADMET_BBB>  (27) 
-1.011

>  <ADMET_BBB_Level>  (27) 
3

>  <ADMET_EXT_CYP2D6>  (27) 
-7.84262446106087

>  <ADMET_EXT_CYP2D6#Prediction>  (27) 
false

>  <ADMET_EXT_CYP2D6_Applicability>  (27) 
All properties and OPS components are within expected ranges.

>  <ADMET_EXT_CYP2D6_Applicability#MD>  (27) 
11.9939180761688

>  <ADMET_EXT_CYP2D6_Applicability#MDpvalue>  (27) 
0.00298687543248025

>  <ADMET_EXT_Hepatotoxic>  (27) 
-6.66835555625142

>  <ADMET_EXT_Hepatotoxic#Prediction>  (27) 
false

>  <ADMET_EXT_Hepatotoxic_Applicability>  (27) 
All properties and OPS components are within expected ranges.

>  <ADMET_EXT_Hepatotoxic_Applicability#MD>  (27) 
10.527203534225

>  <ADMET_EXT_Hepatotoxic_Applicability#MDpvalue>  (27) 
0.0249575128175689

>  <ADMET_Absorption_Level>  (27) 
0

>  <ADMET_EXT_PPB>  (27) 
-11.1865809742097

>  <ADMET_EXT_PPB#Prediction>  (27) 
false

>  <ADMET_EXT_PPB_Applicability>  (27) 
All properties and OPS components are within expected ranges.

>  <ADMET_EXT_PPB_Applicability#MD>  (27) 
12.9278925077938

>  <ADMET_EXT_PPB_Applicability#MDpvalue>  (27) 
0.00715604801262992

>  <ADMET_AlogP98>  (27) 
1.943

>  <ADMET_PSA_2D>  (27) 
92.136

$$$$
STOCK6S-44154
     RDKit          3D

 33 37  0  0  0  0  0  0  0  0999 V2000
   -5.5572   -2.0780   -0.1060 N   0  0  0  0  0  0  0  0  0  0  0  0
   -6.4784   -3.1376   -0.4543 C   0  0  1  0  0  0  0  0  0  0  0  0
   -6.1899   -0.8168   -0.0648 C   0  0  0  0  0  0  0  0  0  0  0  0
   -4.2664   -2.5060    0.4668 C   0  0  1  0  0  0  0  0  0  0  0  0
   -5.9133   -4.4997    0.5540 S   0  0  0  0  0  0  0  0  0  0  0  0
   -4.2177   -4.0497    0.1298 C   0  0  0  0  0  0  0  0  0  0  0  0
   -7.6228   -1.0842   -0.1216 C   0  0  0  0  0  0  0  0  0  0  0  0
   -7.8148   -2.4750   -0.2938 C   0  0  0  0  0  0  0  0  0  0  0  0
   -3.0153   -1.6719    0.1081 C   0  0  0  0  0  0  0  0  0  0  0  0
    6.0251    0.4136   -0.0090 C   0  0  0  0  0  0  0  0  0  0  0  0
    1.9879   -1.4581    0.0083 C   0  0  0  0  0  0  0  0  0  0  0  0
    4.6617   -0.1593    0.0204 C   0  0  0  0  0  0  0  0  0  0  0  0
   -5.6832    0.2444    0.3115 O   0  0  0  0  0  0  0  0  0  0  0  0
    3.1772   -2.0992    0.0616 N   0  0  0  0  0  0  0  0  0  0  0  0
    7.0877   -0.3929   -0.0294 C   0  0  0  0  0  0  0  0  0  0  0  0
    4.4850   -1.4847    0.0174 C   0  0  0  0  0  0  0  0  0  0  0  0
    6.1885    1.7730   -0.0216 O   0  0  0  0  0  0  0  0  0  0  0  0
    0.6993   -2.2785    0.1148 C   0  0  0  0  0  0  0  0  0  0  0  0
    8.3580    0.1212   -0.0293 O   0  0  0  0  0  0  0  0  0  0  0  0
   -3.1457   -0.4987   -0.2571 O   0  0  0  0  0  0  0  0  0  0  0  0
    1.9160   -0.2290   -0.1038 O   0  0  0  0  0  0  0  0  0  0  0  0
   -1.7792   -2.1865    0.2403 N   0  0  0  0  0  0  0  0  0  0  0  0
    6.8976   -1.8425   -0.0371 C   0  0  0  0  0  0  0  0  0  0  0  0
   -0.5812   -1.3897   -0.0297 C   0  0  0  0  0  0  0  0  0  0  0  0
    5.6688   -2.3588   -0.0122 C   0  0  0  0  0  0  0  0  0  0  0  0
   -3.1360   -4.8418    0.8888 C   0  0  0  0  0  0  0  0  0  0  0  0
   -4.0383   -4.2335   -1.3929 C   0  0  0  0  0  0  0  0  0  0  0  0
   -8.6334   -0.2368    0.0252 C   0  0  0  0  0  0  0  0  0  0  0  0
   -9.0192   -3.0322   -0.3139 C   0  0  0  0  0  0  0  0  0  0  0  0
    7.4407    2.3343   -0.3160 C   0  0  0  0  0  0  0  0  0  0  0  0
    8.5713    1.4731    0.2662 C   0  0  0  0  0  0  0  0  0  0  0  0
  -10.0041   -0.8065   -0.0116 C   0  0  0  0  0  0  0  0  0  0  0  0
  -10.1855   -2.1289   -0.1616 C   0  0  0  0  0  0  0  0  0  0  0  0
  2  1  1  0
  3  1  1  0
  4  1  1  0
  2  5  1  1
  6  4  1  0
  7  3  1  0
  8  2  1  0
  4  9  1  6
 10 12  2  0
 11 18  1  0
 12 16  1  0
 13  3  2  0
 14 11  1  0
 15 23  2  0
 16 14  1  0
 17 10  1  0
 18 24  1  0
 19 15  1  0
 20  9  2  0
 21 11  2  0
 22  9  1  0
 23 25  1  0
 24 22  1  0
 25 16  2  0
  6 26  1  0
  6 27  1  0
 28  7  2  0
 29  8  2  0
 30 17  1  0
 31 19  1  0
 32 28  1  0
 33 29  1  0
  6  5  1  0
  8  7  1  0
 33 32  2  0
 10 15  1  0
 30 31  1  0
M  END
>  <Name>  (28) 
STOCK6S-44154

>  <id>  (28) 
STOCK6S-44154

>  <index>  (28) 
SCD

>  <donors>  (28) 
2

>  <acceptors>  (28) 
8

>  <rotatable>  (28) 
7

>  <clogp>  (28) 
3.254

>  <rings>  (28) 
5

>  <tpsa>  (28) 
96.97

>  <iupac_name>  (28) 
(3R)-N-(3-((2,3-dihydrobenzo[b][1,4]dioxin-6-yl)amino)-3-oxopropyl)-2,2-dimethyl-5-oxo-2,3,5,9b-tetrahydrothiazolo[2,3-a]isoindole-3-carboxamide

>  <Num_H_Acceptors_Lipinski>  (28) 
8

>  <Num_H_Donors_Lipinski>  (28) 
2

>  <Molecular_Weight>  (28) 
467.5374

>  <ALogP>  (28) 
2.077

>  <Num_RotatableBonds>  (28) 
5

>  <Molecular_PolarSurfaceArea>  (28) 
122.27

>  <Num_H_Acceptors>  (28) 
6

>  <Num_H_Donors>  (28) 
2

>  <ADMET_Solubility>  (28) 
-4

>  <ADMET_Solubility_Level>  (28) 
3

>  <ADMET_Unknown_AlogP98>  (28) 
0

>  <ADMET_BBB>  (28) 
-1.074

>  <ADMET_BBB_Level>  (28) 
3

>  <ADMET_EXT_CYP2D6>  (28) 
-11.572361598499

>  <ADMET_EXT_CYP2D6#Prediction>  (28) 
false

>  <ADMET_EXT_CYP2D6_Applicability>  (28) 
All properties and OPS components are within expected ranges.

>  <ADMET_EXT_CYP2D6_Applicability#MD>  (28) 
15.5506181902013

>  <ADMET_EXT_CYP2D6_Applicability#MDpvalue>  (28) 
4.82915873216108e-07

>  <ADMET_EXT_Hepatotoxic>  (28) 
-7.57731695088636

>  <ADMET_EXT_Hepatotoxic#Prediction>  (28) 
false

>  <ADMET_EXT_Hepatotoxic_Applicability>  (28) 
All properties and OPS components are within expected ranges.

>  <ADMET_EXT_Hepatotoxic_Applicability#MD>  (28) 
11.6415003398739

>  <ADMET_EXT_Hepatotoxic_Applicability#MDpvalue>  (28) 
0.000663067882271882

>  <ADMET_Absorption_Level>  (28) 
0

>  <ADMET_EXT_PPB>  (28) 
-5.65664837550314

>  <ADMET_EXT_PPB#Prediction>  (28) 
false

>  <ADMET_EXT_PPB_Applicability>  (28) 
All properties and OPS components are within expected ranges.

>  <ADMET_EXT_PPB_Applicability#MD>  (28) 
18.6834639152239

>  <ADMET_EXT_PPB_Applicability#MDpvalue>  (28) 
3.1677921962025e-18

>  <ADMET_AlogP98>  (28) 
2.077

>  <ADMET_PSA_2D>  (28) 
98.735

$$$$
STOCK6S-45218
     RDKit          3D

 24 27  0  0  0  0  0  0  0  0999 V2000
   10.2551   -3.5088    0.0476 N   0  0  0  0  0  0  0  0  0  0  0  0
    9.1228   -2.7127    0.0227 C   0  0  0  0  0  0  0  0  0  0  0  0
    7.8476   -3.3899    0.0280 C   0  0  0  0  0  0  0  0  0  0  0  0
    9.0892   -5.5297    0.0930 N   0  0  0  0  0  0  0  0  0  0  0  0
   10.1860   -4.8762    0.0760 C   0  0  0  0  0  0  0  0  0  0  0  0
    7.8526   -4.8440    0.0675 C   0  0  0  0  0  0  0  0  0  0  0  0
    6.6975   -2.7127    0.0031 C   0  0  0  0  0  0  0  0  0  0  0  0
    1.7982   -2.8031   -0.1745 C   0  0  0  0  0  0  0  0  0  0  0  0
    9.2015   -1.4818    0.0121 O   0  0  0  0  0  0  0  0  0  0  0  0
    0.6123   -3.4259   -0.1293 N   0  0  0  0  0  0  0  0  0  0  0  0
    6.7041   -5.5140    0.0815 C   0  0  0  0  0  0  0  0  0  0  0  0
    1.8751   -1.5901   -0.4026 O   0  0  0  0  0  0  0  0  0  0  0  0
   11.5961   -3.0181    0.0896 C   0  0  0  0  0  0  0  0  0  0  0  0
    5.4220   -3.4451    0.0159 C   0  0  0  0  0  0  0  0  0  0  0  0
    4.2061   -2.7239   -0.0184 O   0  0  0  0  0  0  0  0  0  0  0  0
    3.0625   -3.6011    0.0199 C   0  0  0  0  0  0  0  0  0  0  0  0
   11.5336   -5.4955    0.1156 C   0  0  0  0  0  0  0  0  0  0  0  0
    5.4294   -4.7802    0.0544 C   0  0  0  0  0  0  0  0  0  0  0  0
   -0.6529   -2.7373   -0.3373 C   0  0  0  0  0  0  0  0  0  0  0  0
   12.3821   -4.2851   -0.3897 C   0  0  0  0  0  0  0  0  0  0  0  0
   -0.8977   -1.5467    0.5807 C   0  0  0  0  0  0  0  0  0  0  0  0
   -1.8422   -3.6004    0.0529 C   0  0  0  0  0  0  0  0  0  0  0  0
   -3.0115   -2.5929   -0.0944 C   0  0  0  0  0  0  0  0  0  0  0  0
   -2.3503   -1.1979    0.1850 C   0  0  0  0  0  0  0  0  0  0  0  0
  2  1  1  0
  3  2  1  0
  4  5  2  0
  5  1  1  0
  6  4  1  0
  7  3  2  0
  8 16  1  0
  9  2  2  0
 10  8  1  0
 11  6  2  0
 12  8  2  0
 13  1  1  0
 14  7  1  0
 15 14  1  0
 16 15  1  0
 17  5  1  0
 18 11  1  0
 19 10  1  0
 20 13  1  0
 21 19  1  0
 22 19  1  0
 23 22  1  0
 24 21  1  0
 17 20  1  0
  3  6  1  0
 14 18  2  0
 24 23  1  0
M  END
>  <Name>  (29) 
STOCK6S-45218

>  <id>  (29) 
STOCK6S-45218

>  <index>  (29) 
SCD

>  <donors>  (29) 
1

>  <acceptors>  (29) 
6

>  <rotatable>  (29) 
5

>  <clogp>  (29) 
1.62

>  <rings>  (29) 
4

>  <tpsa>  (29) 
73.22

>  <iupac_name>  (29) 
N-cyclopentyl-2-((9-oxo-1,2,3,9-tetrahydropyrrolo[2,1-b]quinazolin-7-yl)oxy)acetamide

>  <Num_H_Acceptors_Lipinski>  (29) 
6

>  <Num_H_Donors_Lipinski>  (29) 
1

>  <Molecular_Weight>  (29) 
327.37764

>  <ALogP>  (29) 
1.736

>  <Num_RotatableBonds>  (29) 
4

>  <Molecular_PolarSurfaceArea>  (29) 
71

>  <Num_H_Acceptors>  (29) 
4

>  <Num_H_Donors>  (29) 
1

>  <ADMET_Solubility>  (29) 
-3.254

>  <ADMET_Solubility_Level>  (29) 
3

>  <ADMET_Unknown_AlogP98>  (29) 
0

>  <ADMET_BBB>  (29) 
-0.741

>  <ADMET_BBB_Level>  (29) 
3

>  <ADMET_EXT_CYP2D6>  (29) 
-4.3071267786948

>  <ADMET_EXT_CYP2D6#Prediction>  (29) 
false

>  <ADMET_EXT_CYP2D6_Applicability>  (29) 
All properties and OPS components are within expected ranges.

>  <ADMET_EXT_CYP2D6_Applicability#MD>  (29) 
16.365091554552

>  <ADMET_EXT_CYP2D6_Applicability#MDpvalue>  (29) 
5.58652385910671e-08

>  <ADMET_EXT_Hepatotoxic>  (29) 
-4.93273635404124

>  <ADMET_EXT_Hepatotoxic#Prediction>  (29) 
false

>  <ADMET_EXT_Hepatotoxic_Applicability>  (29) 
All properties and OPS components are within expected ranges.

>  <ADMET_EXT_Hepatotoxic_Applicability#MD>  (29) 
13.4557414016577

>  <ADMET_EXT_Hepatotoxic_Applicability#MDpvalue>  (29) 
1.83092521191062e-07

>  <ADMET_Absorption_Level>  (29) 
0

>  <ADMET_EXT_PPB>  (29) 
-3.44764644469621

>  <ADMET_EXT_PPB#Prediction>  (29) 
false

>  <ADMET_EXT_PPB_Applicability>  (29) 
All properties and OPS components are within expected ranges.

>  <ADMET_EXT_PPB_Applicability#MD>  (29) 
13.2709399431723

>  <ADMET_EXT_PPB_Applicability#MDpvalue>  (29) 
0.0021295714724268

>  <ADMET_AlogP98>  (29) 
1.736

>  <ADMET_PSA_2D>  (29) 
71.017

$$$$
STOCK6S-46274
     RDKit          3D

 32 35  0  0  0  0  0  0  0  0999 V2000
    5.3790   -3.4908   -0.0010 C   0  0  0  0  0  0  0  0  0  0  0  0
    7.8132   -3.4212   -0.0763 N   0  0  0  0  0  0  0  0  0  0  0  0
    5.8093   -2.2028    0.0379 C   0  0  0  0  0  0  0  0  0  0  0  0
    7.2635   -2.1397    0.0027 C   0  0  0  0  0  0  0  0  0  0  0  0
    3.8925   -4.0219    0.0075 C   0  0  0  0  0  0  0  0  0  0  0  0
    6.6939   -4.3953   -0.0646 C   0  0  1  0  0  0  0  0  0  0  0  0
    2.5632   -3.2232    0.0152 C   0  0  0  0  0  0  0  0  0  0  0  0
    0.1547   -3.2169    0.0140 N   0  0  0  0  0  0  0  0  0  0  0  0
    1.2134   -3.9135    0.0147 C   0  0  0  0  0  0  0  0  0  0  0  0
    2.5247   -1.8932    0.0142 C   0  0  0  0  0  0  0  0  0  0  0  0
    1.3056   -1.2075    0.0148 N   0  0  0  0  0  0  0  0  0  0  0  0
    0.1957   -1.8269    0.0142 C   0  0  0  0  0  0  0  0  0  0  0  0
    7.8924   -1.0713   -0.0014 O   0  0  0  0  0  0  0  0  0  0  0  0
   12.7339   -2.2460    0.3232 N   0  0  0  0  0  0  0  0  0  0  0  0
    3.7620   -5.2385   -0.0133 O   0  0  0  0  0  0  0  0  0  0  0  0
    6.8366   -6.0020   -0.0400 C   0  0  0  0  0  0  0  0  0  0  0  0
    5.0449   -1.0637    0.0982 O   0  0  0  0  0  0  0  0  0  0  0  0
    7.0739   -8.7912    0.0069 N   0  0  0  0  0  0  0  0  0  0  0  0
    9.2494   -3.7462   -0.2078 C   0  0  0  0  0  0  0  0  0  0  0  0
   15.0221   -0.6404   -0.2886 O   0  0  0  0  0  0  0  0  0  0  0  0
   10.2595   -2.6435    0.1894 C   0  0  0  0  0  0  0  0  0  0  0  0
   11.6805   -3.2008   -0.0738 C   0  0  0  0  0  0  0  0  0  0  0  0
    1.0426   -5.4172    0.0142 C   0  0  0  0  0  0  0  0  0  0  0  0
   14.0500   -2.8508    0.0441 C   0  0  0  0  0  0  0  0  0  0  0  0
   12.6085   -0.9879   -0.4347 C   0  0  0  0  0  0  0  0  0  0  0  0
    8.2286   -8.0033   -0.0159 C   0  0  0  0  0  0  0  0  0  0  0  0
    5.9226   -8.2554    0.0074 C   0  0  0  0  0  0  0  0  0  0  0  0
   -1.0900   -1.0547    0.0133 C   0  0  0  0  0  0  0  0  0  0  0  0
   15.1645   -1.8645    0.4529 C   0  0  0  0  0  0  0  0  0  0  0  0
   13.7472   -0.0306   -0.0108 C   0  0  0  0  0  0  0  0  0  0  0  0
    5.7798   -6.8031   -0.0163 C   0  0  0  0  0  0  0  0  0  0  0  0
    8.1457   -6.6740   -0.0384 C   0  0  0  0  0  0  0  0  0  0  0  0
  2  6  1  0
  3  1  2  0
  4  3  1  0
  5  1  1  0
  6  1  1  0
  7  5  1  0
  8  9  2  0
  9  7  1  0
 10  7  2  0
 11 10  1  0
 12 11  2  0
 13  4  2  0
 14 22  1  0
 15  5  2  0
  6 16  1  1
 17  3  1  0
 18 26  2  0
 19  2  1  0
 20 30  1  0
 21 19  1  0
 22 21  1  0
 23  9  1  0
 24 14  1  0
 25 14  1  0
 26 32  1  0
 27 31  2  0
 28 12  1  0
 29 24  1  0
 30 25  1  0
 31 16  1  0
 32 16  2  0
  4  2  1  0
 18 27  1  0
 12  8  1  0
 20 29  1  0
M  END
>  <Name>  (30) 
STOCK6S-46274

>  <id>  (30) 
STOCK6S-46274

>  <index>  (30) 
SCD

>  <donors>  (30) 
1

>  <acceptors>  (30) 
9

>  <rotatable>  (30) 
7

>  <clogp>  (30) 
1.111

>  <rings>  (30) 
4

>  <tpsa>  (30) 
108.75

>  <iupac_name>  (30) 
4-(2,4-dimethylpyrimidine-5-carbonyl)-3-hydroxy-1-(3-morpholinopropyl)-5-(pyridin-4-yl)-1H-pyrrol-2(5H)-one

>  <Num_H_Acceptors_Lipinski>  (30) 
9

>  <Num_H_Donors_Lipinski>  (30) 
1

>  <Molecular_Weight>  (30) 
437.49158

>  <ALogP>  (30) 
-0.417

>  <Num_RotatableBonds>  (30) 
7

>  <Molecular_PolarSurfaceArea>  (30) 
108.75

>  <Num_H_Acceptors>  (30) 
8

>  <Num_H_Donors>  (30) 
1

>  <ADMET_Solubility>  (30) 
-1.101

>  <ADMET_Solubility_Level>  (30) 
4

>  <ADMET_Unknown_AlogP98>  (30) 
0

>  <ADMET_BBB>  (30) 
-1.942

>  <ADMET_BBB_Level>  (30) 
3

>  <ADMET_EXT_CYP2D6>  (30) 
-9.73288630029424

>  <ADMET_EXT_CYP2D6#Prediction>  (30) 
false

>  <ADMET_EXT_CYP2D6_Applicability>  (30) 
All properties and OPS components are within expected ranges.

>  <ADMET_EXT_CYP2D6_Applicability#MD>  (30) 
14.7360254762594

>  <ADMET_EXT_CYP2D6_Applicability#MDpvalue>  (30) 
4.04444110906566e-06

>  <ADMET_EXT_Hepatotoxic>  (30) 
-6.44159529223989

>  <ADMET_EXT_Hepatotoxic#Prediction>  (30) 
false

>  <ADMET_EXT_Hepatotoxic_Applicability>  (30) 
OPS PC17 out of range. Value: -3.129. Training min, max, SD, explained variance: -3.1271, 3.8227, 1.131, 0.0159.

>  <ADMET_EXT_Hepatotoxic_Applicability#MD>  (30) 
11.9920664755008

>  <ADMET_EXT_Hepatotoxic_Applicability#MDpvalue>  (30) 
0.000167039705184915

>  <ADMET_Absorption_Level>  (30) 
0

>  <ADMET_EXT_PPB>  (30) 
-9.78348375668797

>  <ADMET_EXT_PPB#Prediction>  (30) 
false

>  <ADMET_EXT_PPB_Applicability>  (30) 
All properties and OPS components are within expected ranges.

>  <ADMET_EXT_PPB_Applicability#MD>  (30) 
14.761541491415

>  <ADMET_EXT_PPB_Applicability#MDpvalue>  (30) 
2.44347788622115e-06

>  <ADMET_AlogP98>  (30) 
-0.417

>  <ADMET_PSA_2D>  (30) 
104.835

$$$$
STOCK6S-46529
     RDKit          3D

 33 36  0  0  0  0  0  0  0  0999 V2000
    2.8621   -4.6417   -0.0033 C   0  0  0  0  0  0  0  0  0  0  0  0
    4.9360   -3.3851   -0.1197 N   0  0  0  0  0  0  0  0  0  0  0  0
    2.6127   -3.3136    0.0439 C   0  0  0  0  0  0  0  0  0  0  0  0
    3.8238   -2.5457   -0.0133 C   0  0  0  0  0  0  0  0  0  0  0  0
    4.4491   -4.7870   -0.0943 C   0  0  1  0  0  0  0  0  0  0  0  0
    1.8150   -5.8279    0.0184 C   0  0  0  0  0  0  0  0  0  0  0  0
    0.2898   -5.7357    0.0230 C   0  0  0  0  0  0  0  0  0  0  0  0
   -0.4972   -6.9972    0.0215 C   0  0  0  0  0  0  0  0  0  0  0  0
    6.3304   -2.9356   -0.3022 C   0  0  0  0  0  0  0  0  0  0  0  0
   -0.3768   -4.5885    0.0161 C   0  0  0  0  0  0  0  0  0  0  0  0
   -1.8326   -6.9505    0.0157 C   0  0  0  0  0  0  0  0  0  0  0  0
    7.9630   -1.0821   -0.2778 N   0  0  0  0  0  0  0  0  0  0  0  0
    3.8224   -1.3093   -0.0236 O   0  0  0  0  0  0  0  0  0  0  0  0
    2.2454   -6.9754    0.0018 O   0  0  0  0  0  0  0  0  0  0  0  0
    5.3610   -6.1038   -0.0577 C   0  0  0  0  0  0  0  0  0  0  0  0
    1.4007   -2.6783    0.1285 O   0  0  0  0  0  0  0  0  0  0  0  0
    6.5920   -1.4616    0.0796 C   0  0  0  0  0  0  0  0  0  0  0  0
   10.5638   -0.1079    0.3582 O   0  0  0  0  0  0  0  0  0  0  0  0
   -2.5316   -5.6692    0.0116 C   0  0  0  0  0  0  0  0  0  0  0  0
   -1.8277   -4.5423    0.0121 C   0  0  0  0  0  0  0  0  0  0  0  0
    0.1659   -8.2405    0.0230 O   0  0  0  0  0  0  0  0  0  0  0  0
   -3.9363   -5.6393    0.0064 O   0  0  0  0  0  0  0  0  0  0  0  0
    8.9370   -1.9234    0.4367 C   0  0  0  0  0  0  0  0  0  0  0  0
    8.1840    0.3297    0.0672 C   0  0  0  0  0  0  0  0  0  0  0  0
    9.6188    0.7247   -0.3376 C   0  0  0  0  0  0  0  0  0  0  0  0
   10.3607   -1.4931    0.0225 C   0  0  0  0  0  0  0  0  0  0  0  0
    4.8251   -7.3211   -0.0249 C   0  0  0  0  0  0  0  0  0  0  0  0
    6.8408   -6.0234   -0.0531 C   0  0  0  0  0  0  0  0  0  0  0  0
   -0.7628   -9.3374    0.0169 C   0  0  0  0  0  0  0  0  0  0  0  0
   -4.4304   -4.2879    0.0018 C   0  0  0  0  0  0  0  0  0  0  0  0
    7.5977   -7.1182   -0.0197 C   0  0  0  0  0  0  0  0  0  0  0  0
    5.6522   -8.5294    0.0112 C   0  0  0  0  0  0  0  0  0  0  0  0
    6.9771   -8.4323    0.0136 C   0  0  0  0  0  0  0  0  0  0  0  0
  2  5  1  0
  3  1  2  0
  4  3  1  0
  5  1  1  0
  6  1  1  0
  7  6  1  0
  8  7  2  0
  9  2  1  0
 10  7  1  0
 11  8  1  0
 12 17  1  0
 13  4  2  0
 14  6  2  0
  5 15  1  1
 16  3  1  0
 17  9  1  0
 18 25  1  0
 19 20  1  0
 20 10  2  0
 21  8  1  0
 22 19  1  0
 23 12  1  0
 24 12  1  0
 25 24  1  0
 26 23  1  0
 27 15  2  0
 28 15  1  0
 29 21  1  0
 30 22  1  0
 31 28  2  0
 32 27  1  0
 33 31  1  0
  4  2  1  0
 19 11  2  0
 33 32  2  0
 18 26  1  0
M  END
>  <Name>  (31) 
STOCK6S-46529

>  <id>  (31) 
STOCK6S-46529

>  <index>  (31) 
SCD

>  <donors>  (31) 
1

>  <acceptors>  (31) 
8

>  <rotatable>  (31) 
8

>  <clogp>  (31) 
3.64

>  <rings>  (31) 
4

>  <tpsa>  (31) 
88.54

>  <iupac_name>  (31) 
4-(2,4-dimethoxybenzoyl)-3-hydroxy-1-(2-morpholinoethyl)-5-phenyl-1H-pyrrol-2(5H)-one

>  <Num_H_Acceptors_Lipinski>  (31) 
8

>  <Num_H_Donors_Lipinski>  (31) 
1

>  <Molecular_Weight>  (31) 
452.49962

>  <ALogP>  (31) 
2.179

>  <Num_RotatableBonds>  (31) 
8

>  <Molecular_PolarSurfaceArea>  (31) 
88.54

>  <Num_H_Acceptors>  (31) 
7

>  <Num_H_Donors>  (31) 
1

>  <ADMET_Solubility>  (31) 
-3.191

>  <ADMET_Solubility_Level>  (31) 
3

>  <ADMET_Unknown_AlogP98>  (31) 
0

>  <ADMET_BBB>  (31) 
-0.887

>  <ADMET_BBB_Level>  (31) 
3

>  <ADMET_EXT_CYP2D6>  (31) 
-4.3623921158215

>  <ADMET_EXT_CYP2D6#Prediction>  (31) 
false

>  <ADMET_EXT_CYP2D6_Applicability>  (31) 
OPS PC6 out of range. Value: 4.296. Training min, max, SD, explained variance: -5.674, 3.9834, 1.993, 0.0519.

>  <ADMET_EXT_CYP2D6_Applicability#MD>  (31) 
13.1276505539502

>  <ADMET_EXT_CYP2D6_Applicability#MDpvalue>  (31) 
0.000224707612257316

>  <ADMET_EXT_Hepatotoxic>  (31) 
-7.14195635898226

>  <ADMET_EXT_Hepatotoxic#Prediction>  (31) 
false

>  <ADMET_EXT_Hepatotoxic_Applicability>  (31) 
All properties and OPS components are within expected ranges.

>  <ADMET_EXT_Hepatotoxic_Applicability#MD>  (31) 
11.3463270147908

>  <ADMET_EXT_Hepatotoxic_Applicability#MDpvalue>  (31) 
0.00194483854170231

>  <ADMET_Absorption_Level>  (31) 
0

>  <ADMET_EXT_PPB>  (31) 
-5.23636914872927

>  <ADMET_EXT_PPB#Prediction>  (31) 
false

>  <ADMET_EXT_PPB_Applicability>  (31) 
All properties and OPS components are within expected ranges.

>  <ADMET_EXT_PPB_Applicability#MD>  (31) 
14.2619625160167

>  <ADMET_EXT_PPB_Applicability#MDpvalue>  (31) 
3.06777835402688e-05

>  <ADMET_AlogP98>  (31) 
2.179

>  <ADMET_PSA_2D>  (31) 
88.912

$$$$
STOCK6S-48142
     RDKit          3D

 21 22  0  0  0  0  0  0  0  0999 V2000
    7.0592   -5.2303   -0.0721 N   0  0  0  0  0  0  0  0  0  0  0  0
    5.8927   -4.4514    0.0850 C   0  0  0  0  0  0  0  0  0  0  0  0
    4.6179   -5.0839    0.0558 N   0  0  0  0  0  0  0  0  0  0  0  0
    8.3490   -4.7417   -0.0317 C   0  0  0  0  0  0  0  0  0  0  0  0
    7.0328   -6.6712   -0.2729 C   0  0  0  0  0  0  0  0  0  0  0  0
    2.1997   -5.3040    0.0092 C   0  0  0  0  0  0  0  0  0  0  0  0
    3.3676   -4.3738    0.3288 C   0  0  2  0  0  0  0  0  0  0  0  0
    5.9922   -3.2379    0.2976 O   0  0  0  0  0  0  0  0  0  0  0  0
    9.2203   -5.7112   -0.1344 C   0  0  0  0  0  0  0  0  0  0  0  0
    8.5744   -7.0597   -0.2624 C   0  0  0  0  0  0  0  0  0  0  0  0
    1.1183   -4.8680   -0.4037 O   0  0  0  0  0  0  0  0  0  0  0  0
    2.3562   -6.6760    0.1657 O   0  0  0  0  0  0  0  0  0  0  0  0
    3.2502   -2.9835   -0.3808 C   0  0  0  0  0  0  0  0  0  0  0  0
    1.9199   -0.5966   -0.7041 S   0  0  0  0  0  0  0  0  0  0  0  0
    8.7683   -3.3507    0.1015 C   0  0  0  0  0  0  0  0  0  0  0  0
    2.0022   -2.2096    0.1041 C   0  0  0  0  0  0  0  0  0  0  0  0
   10.6525   -5.4532   -0.1169 C   0  0  0  0  0  0  0  0  0  0  0  0
    0.4688    0.2967   -0.0944 C   0  0  0  0  0  0  0  0  0  0  0  0
    1.1415   -7.3381   -0.2044 C   0  0  0  0  0  0  0  0  0  0  0  0
   10.0766   -3.0840    0.1162 C   0  0  0  0  0  0  0  0  0  0  0  0
   11.0656   -4.1879    0.0030 C   0  0  0  0  0  0  0  0  0  0  0  0
  2  1  1  0
  3  2  1  0
  4  1  1  0
  5  1  1  0
  6  7  1  0
  7  3  1  0
  8  2  2  0
  9  4  2  0
 10  5  1  0
 11  6  2  0
 12  6  1  0
  7 13  1  6
 14 16  1  0
 15  4  1  0
 16 13  1  0
 17  9  1  0
 18 14  1  0
 19 12  1  0
 20 15  2  0
 21 20  1  0
  9 10  1  0
 21 17  2  0
M  END
>  <Name>  (32) 
STOCK6S-48142

>  <id>  (32) 
STOCK6S-48142

>  <index>  (32) 
SC

>  <donors>  (32) 
1

>  <acceptors>  (32) 
5

>  <rotatable>  (32) 
8

>  <clogp>  (32) 
1.705

>  <rings>  (32) 
2

>  <tpsa>  (32) 
58.64

>  <iupac_name>  (32) 
(S)-methyl 2-(indoline-1-carboxamido)-4-(methylthio)butanoate

>  <Num_H_Acceptors_Lipinski>  (32) 
5

>  <Num_H_Donors_Lipinski>  (32) 
1

>  <Molecular_Weight>  (32) 
308.3959

>  <ALogP>  (32) 
1.745

>  <Num_RotatableBonds>  (32) 
6

>  <Molecular_PolarSurfaceArea>  (32) 
83.94

>  <Num_H_Acceptors>  (32) 
4

>  <Num_H_Donors>  (32) 
1

>  <ADMET_Solubility>  (32) 
-2.602

>  <ADMET_Solubility_Level>  (32) 
3

>  <ADMET_Unknown_AlogP98>  (32) 
0

>  <ADMET_BBB>  (32) 
-0.559

>  <ADMET_BBB_Level>  (32) 
3

>  <ADMET_EXT_CYP2D6>  (32) 
-5.214865942992

>  <ADMET_EXT_CYP2D6#Prediction>  (32) 
false

>  <ADMET_EXT_CYP2D6_Applicability>  (32) 
All properties and OPS components are within expected ranges.

>  <ADMET_EXT_CYP2D6_Applicability#MD>  (32) 
14.4138099798052

>  <ADMET_EXT_CYP2D6_Applicability#MDpvalue>  (32) 
9.25190707050349e-06

>  <ADMET_EXT_Hepatotoxic>  (32) 
-6.56100940971954

>  <ADMET_EXT_Hepatotoxic#Prediction>  (32) 
false

>  <ADMET_EXT_Hepatotoxic_Applicability>  (32) 
All properties and OPS components are within expected ranges.

>  <ADMET_EXT_Hepatotoxic_Applicability#MD>  (32) 
11.773469607577

>  <ADMET_EXT_Hepatotoxic_Applicability#MDpvalue>  (32) 
0.000399594557937329

>  <ADMET_Absorption_Level>  (32) 
0

>  <ADMET_EXT_PPB>  (32) 
0.211614906624002

>  <ADMET_EXT_PPB#Prediction>  (32) 
true

>  <ADMET_EXT_PPB_Applicability>  (32) 
All properties and OPS components are within expected ranges.

>  <ADMET_EXT_PPB_Applicability#MD>  (32) 
18.352320082204

>  <ADMET_EXT_PPB_Applicability#MDpvalue>  (32) 
4.94209575943991e-17

>  <ADMET_AlogP98>  (32) 
1.745

>  <ADMET_PSA_2D>  (32) 
59.694

$$$$
STOCK6S-48982
     RDKit          3D

 27 29  0  0  0  0  0  0  0  0999 V2000
    2.9213   -3.7977    0.0081 N   0  0  0  0  0  0  0  0  0  0  0  0
    3.5267   -4.9154   -0.0032 C   0  0  0  0  0  0  0  0  0  0  0  0
    3.8663   -2.8008    0.1936 C   0  0  0  0  0  0  0  0  0  0  0  0
    4.9273   -4.7601    0.1556 N   0  0  0  0  0  0  0  0  0  0  0  0
    5.2073   -3.3851    0.4458 C   0  0  1  0  0  0  0  0  0  0  0  0
    6.3510   -2.7062   -0.3306 C   0  0  0  0  0  0  0  0  0  0  0  0
    7.6393   -3.4314   -0.0693 C   0  0  0  0  0  0  0  0  0  0  0  0
    2.8475   -6.1521   -0.1598 N   0  0  0  0  0  0  0  0  0  0  0  0
    8.7986   -2.8291   -0.3877 N   0  0  0  0  0  0  0  0  0  0  0  0
    3.6193   -1.5913    0.1990 O   0  0  0  0  0  0  0  0  0  0  0  0
    7.6006   -4.5520    0.4507 O   0  0  0  0  0  0  0  0  0  0  0  0
    3.4732   -7.4237   -0.1177 C   0  0  0  0  0  0  0  0  0  0  0  0
   10.0943   -3.3988   -0.2114 C   0  0  0  0  0  0  0  0  0  0  0  0
    4.6555   -9.9696   -0.0149 C   0  0  0  0  0  0  0  0  0  0  0  0
   12.6782   -4.4477    0.1011 C   0  0  0  0  0  0  0  0  0  0  0  0
   11.2703   -2.5330   -0.3653 C   0  0  0  0  0  0  0  0  0  0  0  0
   10.2692   -4.6897    0.0770 C   0  0  0  0  0  0  0  0  0  0  0  0
    2.6402   -8.6271   -0.1998 C   0  0  0  0  0  0  0  0  0  0  0  0
    4.7962   -7.5510    0.0055 C   0  0  0  0  0  0  0  0  0  0  0  0
    3.1971   -9.8359   -0.1499 C   0  0  0  0  0  0  0  0  0  0  0  0
    5.4117   -8.8771    0.0568 C   0  0  0  0  0  0  0  0  0  0  0  0
   11.6164   -5.2383    0.2398 C   0  0  0  0  0  0  0  0  0  0  0  0
   12.4968   -3.0309   -0.2146 C   0  0  0  0  0  0  0  0  0  0  0  0
    5.2624  -11.2331    0.0411 O   0  0  0  0  0  0  0  0  0  0  0  0
    4.2883  -12.2810   -0.0450 C   0  0  0  0  0  0  0  0  0  0  0  0
   14.0596   -5.0106    0.2661 C   0  0  0  0  0  0  0  0  0  0  0  0
    4.9976  -13.6454    0.0283 C   0  0  0  0  0  0  0  0  0  0  0  0
  2  1  2  0
  3  1  1  0
  4  2  1  0
  5  3  1  0
  5  6  1  6
  7  6  1  0
  8  2  1  0
  9  7  1  0
 10  3  2  0
 11  7  2  0
 12  8  1  0
 13  9  1  0
 14 21  2  0
 15 22  2  0
 16 13  1  0
 17 13  2  0
 18 12  1  0
 19 12  2  0
 20 18  2  0
 21 19  1  0
 22 17  1  0
 23 16  2  0
 24 14  1  0
 25 24  1  0
 26 15  1  0
 27 25  1  0
  5  4  1  0
 14 20  1  0
 15 23  1  0
M  END
>  <Name>  (33) 
STOCK6S-48982

>  <id>  (33) 
STOCK6S-48982

>  <index>  (33) 
SC

>  <donors>  (33) 
3

>  <acceptors>  (33) 
7

>  <rotatable>  (33) 
8

>  <clogp>  (33) 
1.858

>  <rings>  (33) 
3

>  <tpsa>  (33) 
91.82

>  <iupac_name>  (33) 
2-(2-((4-ethoxyphenyl)amino)-4-oxo-4,5-dihydro-1H-imidazol-5-yl)-N-(p-tolyl)acetamide

>  <Num_H_Acceptors_Lipinski>  (33) 
7

>  <Num_H_Donors_Lipinski>  (33) 
3

>  <Molecular_Weight>  (33) 
366.41368

>  <ALogP>  (33) 
2.515

>  <Num_RotatableBonds>  (33) 
7

>  <Molecular_PolarSurfaceArea>  (33) 
91.82

>  <Num_H_Acceptors>  (33) 
6

>  <Num_H_Donors>  (33) 
3

>  <ADMET_Solubility>  (33) 
-3.64

>  <ADMET_Solubility_Level>  (33) 
3

>  <ADMET_Unknown_AlogP98>  (33) 
0

>  <ADMET_BBB>  (33) 
-0.853

>  <ADMET_BBB_Level>  (33) 
3

>  <ADMET_EXT_CYP2D6>  (33) 
-10.4462764343564

>  <ADMET_EXT_CYP2D6#Prediction>  (33) 
false

>  <ADMET_EXT_CYP2D6_Applicability>  (33) 
All properties and OPS components are within expected ranges.

>  <ADMET_EXT_CYP2D6_Applicability#MD>  (33) 
17.4183848354425

>  <ADMET_EXT_CYP2D6_Applicability#MDpvalue>  (33) 
3.35998095080817e-09

>  <ADMET_EXT_Hepatotoxic>  (33) 
-4.5959469437514

>  <ADMET_EXT_Hepatotoxic#Prediction>  (33) 
false

>  <ADMET_EXT_Hepatotoxic_Applicability>  (33) 
All properties and OPS components are within expected ranges.

>  <ADMET_EXT_Hepatotoxic_Applicability#MD>  (33) 
11.7889257680642

>  <ADMET_EXT_Hepatotoxic_Applicability#MDpvalue>  (33) 
0.000376205644950677

>  <ADMET_Absorption_Level>  (33) 
0

>  <ADMET_EXT_PPB>  (33) 
-2.74114267719636

>  <ADMET_EXT_PPB#Prediction>  (33) 
false

>  <ADMET_EXT_PPB_Applicability>  (33) 
All properties and OPS components are within expected ranges.

>  <ADMET_EXT_PPB_Applicability#MD>  (33) 
14.6320294582938

>  <ADMET_EXT_PPB_Applicability#MDpvalue>  (33) 
4.82320936838603e-06

>  <ADMET_AlogP98>  (33) 
2.515

>  <ADMET_PSA_2D>  (33) 
93.285

$$$$
STOCK6S-50531
     RDKit          3D

 15 16  0  0  0  0  0  0  0  0999 V2000
    2.3967    0.2055   -0.2922 C   0  0  1  0  0  0  0  0  0  0  0  0
    3.7136   -0.3041    0.1503 N   0  0  0  0  0  0  0  0  0  0  0  0
    4.5729    0.8772   -0.1616 C   0  0  2  0  0  0  0  0  0  0  0  0
    1.1812   -0.6595   -0.1233 C   0  0  0  0  0  0  0  0  0  0  0  0
    2.2552    1.9002    0.2558 S   0  0  0  0  0  0  0  0  0  0  0  0
    6.0290    0.6687    0.1266 C   0  0  0  0  0  0  0  0  0  0  0  0
    3.9961    2.0946    0.6126 C   0  0  0  0  0  0  0  0  0  0  0  0
    1.3026   -2.1221   -0.0421 C   0  0  0  0  0  0  0  0  0  0  0  0
    6.7656    1.6430    0.3171 O   0  0  0  0  0  0  0  0  0  0  0  0
    6.5524   -0.6187    0.1691 O   0  0  0  0  0  0  0  0  0  0  0  0
    2.5522   -2.7284   -0.1180 O   0  0  0  0  0  0  0  0  0  0  0  0
   -0.0218   -0.0895   -0.0516 C   0  0  0  0  0  0  0  0  0  0  0  0
    0.2123   -2.8721    0.1026 C   0  0  0  0  0  0  0  0  0  0  0  0
   -1.2186   -0.9166    0.1086 C   0  0  0  0  0  0  0  0  0  0  0  0
   -1.1082   -2.2417    0.1819 C   0  0  0  0  0  0  0  0  0  0  0  0
  2  1  1  0
  3  2  1  0
  1  4  1  1
  5  1  1  0
  3  6  1  1
  7  5  1  0
  8  4  2  0
  9  6  2  0
 10  6  1  0
 11  8  1  0
 12  4  1  0
 13  8  1  0
 14 12  2  0
 15 14  1  0
  3  7  1  0
 13 15  2  0
M  END
>  <Name>  (34) 
STOCK6S-50531

>  <id>  (34) 
STOCK6S-50531

>  <index>  (34) 
SCD

>  <donors>  (34) 
3

>  <acceptors>  (34) 
4

>  <rotatable>  (34) 
2

>  <clogp>  (34) 
-1.102

>  <rings>  (34) 
2

>  <tpsa>  (34) 
69.56

>  <iupac_name>  (34) 
(4R)-2-(2-hydroxyphenyl)thiazolidine-4-carboxylic acid

>  <Num_H_Acceptors_Lipinski>  (34) 
4

>  <Num_H_Donors_Lipinski>  (34) 
3

>  <Molecular_Weight>  (34) 
225.26424

>  <ALogP>  (34) 
-1.331

>  <Num_RotatableBonds>  (34) 
2

>  <Molecular_PolarSurfaceArea>  (34) 
94.86

>  <Num_H_Acceptors>  (34) 
5

>  <Num_H_Donors>  (34) 
3

>  <ADMET_Solubility>  (34) 
-2.016

>  <ADMET_Solubility_Level>  (34) 
3

>  <ADMET_Unknown_AlogP98>  (34) 
0

>  <ADMET_BBB>  (34) 
-0.864

>  <ADMET_BBB_Level>  (34) 
3

>  <ADMET_EXT_CYP2D6>  (34) 
-3.76277946128923

>  <ADMET_EXT_CYP2D6#Prediction>  (34) 
false

>  <ADMET_EXT_CYP2D6_Applicability>  (34) 
ALogP out of range. Value: -1.331. Training min, max, mean, SD: -0.811, 9.062, 3.2351, 1.51.
Unknown FCFP_2 feature: -1365763656: [*]NC1N([*])[*][*]:[c]1:[*]

>  <ADMET_EXT_CYP2D6_Applicability#MD>  (34) 
16.6330589994418

>  <ADMET_EXT_CYP2D6_Applicability#MDpvalue>  (34) 
2.73620304564709e-08

>  <ADMET_EXT_Hepatotoxic>  (34) 
-7.11133780858238

>  <ADMET_EXT_Hepatotoxic#Prediction>  (34) 
false

>  <ADMET_EXT_Hepatotoxic_Applicability>  (34) 
All properties and OPS components are within expected ranges.
Unknown FCFP_2 feature: -1365763656: [*]NC1N([*])[*][*]:[c]1:[*]

>  <ADMET_EXT_Hepatotoxic_Applicability#MD>  (34) 
7.78526820121977

>  <ADMET_EXT_Hepatotoxic_Applicability#MDpvalue>  (34) 
0.933301408780206

>  <ADMET_Absorption_Level>  (34) 
0

>  <ADMET_EXT_PPB>  (34) 
-6.57338759329822

>  <ADMET_EXT_PPB#Prediction>  (34) 
false

>  <ADMET_EXT_PPB_Applicability>  (34) 
All properties and OPS components are within expected ranges.
Unknown FCFP_2 feature: -1365763656: [*]NC1N([*])[*][*]:[c]1:[*]

>  <ADMET_EXT_PPB_Applicability#MD>  (34) 
13.7888675851486

>  <ADMET_EXT_PPB_Applicability#MDpvalue>  (34) 
0.000265365203300065

>  <ADMET_AlogP98>  (34) 
1.374

>  <ADMET_PSA_2D>  (34) 
71.741

$$$$
STOCK6S-51552
     RDKit          3D

 24 26  0  0  0  0  0  0  0  0999 V2000
    5.5724   -1.3612    0.0000 C   0  0  0  0  0  0  0  0  0  0  0  0
    5.1632   -2.6131   -0.0003 C   0  0  0  0  0  0  0  0  0  0  0  0
    6.2855   -3.4912   -0.0001 N   0  0  0  0  0  0  0  0  0  0  0  0
    4.6949   -0.1911   -0.0001 C   0  0  0  0  0  0  0  0  0  0  0  0
    7.0049   -1.3405    0.0004 C   0  0  0  0  0  0  0  0  0  0  0  0
    5.0837    1.0261    0.0001 N   0  0  0  0  0  0  0  0  0  0  0  0
    7.5629   -2.7545    0.0004 C   0  0  0  0  0  0  0  0  0  0  0  0
    3.0331   -0.2475   -0.0005 S   0  0  0  0  0  0  0  0  0  0  0  0
    6.2024   -4.9091   -0.0002 C   0  0  0  0  0  0  0  0  0  0  0  0
    3.9484    1.9628   -0.0001 C   0  0  0  0  0  0  0  0  0  0  0  0
    8.6810   -7.8478    0.0005 C   0  0  0  0  0  0  0  0  0  0  0  0
    2.7359    1.3861   -0.0004 C   0  0  0  0  0  0  0  0  0  0  0  0
    7.4291   -5.7333    0.0002 C   0  0  0  0  0  0  0  0  0  0  0  0
    7.3556   -7.0696    0.0000 C   0  0  0  0  0  0  0  0  0  0  0  0
    3.8146   -2.9887   -0.0007 N   0  0  0  0  0  0  0  0  0  0  0  0
    7.6910   -0.3124    0.0007 O   0  0  0  0  0  0  0  0  0  0  0  0
    9.7073   -7.1592    0.0009 O   0  0  0  0  0  0  0  0  0  0  0  0
    8.8926   -9.3016    0.0005 O   0  0  0  0  0  0  0  0  0  0  0  0
    5.0136   -5.5055   -0.0007 C   0  0  0  0  0  0  0  0  0  0  0  0
    6.0102   -7.6894   -0.0005 C   0  0  0  0  0  0  0  0  0  0  0  0
    4.9107   -6.9468   -0.0009 C   0  0  0  0  0  0  0  0  0  0  0  0
    4.1301    3.4513    0.0002 C   0  0  0  0  0  0  0  0  0  0  0  0
    7.7679  -10.2012    0.0000 C   0  0  0  0  0  0  0  0  0  0  0  0
    8.2570  -11.6594    0.0001 C   0  0  0  0  0  0  0  0  0  0  0  0
  2  1  2  0
  3  2  1  0
  4  1  1  0
  5  1  1  0
  6  4  2  0
  7  5  1  0
  8  4  1  0
  9  3  1  0
 10  6  1  0
 11 14  1  0
 12  8  1  0
 13  9  2  0
 14 13  1  0
 15  2  1  0
 16  5  2  0
 17 11  2  0
 18 11  1  0
 19  9  1  0
 20 21  1  0
 21 19  2  0
 22 10  1  0
 23 18  1  0
 24 23  1  0
  7  3  1  0
 12 10  2  0
 14 20  2  0
M  END
>  <Name>  (35) 
STOCK6S-51552

>  <id>  (35) 
STOCK6S-51552

>  <index>  (35) 
SC

>  <donors>  (35) 
1

>  <acceptors>  (35) 
6

>  <rotatable>  (35) 
5

>  <clogp>  (35) 
2.941

>  <rings>  (35) 
3

>  <tpsa>  (35) 
85.5200000000002

>  <iupac_name>  (35) 
ethyl 3-(5-amino-4-(4-methylthiazol-2-yl)-3-oxo-2,3-dihydro-1H-pyrrol-1-yl)benzoate

>  <Num_H_Acceptors_Lipinski>  (35) 
6

>  <Num_H_Donors_Lipinski>  (35) 
2

>  <Molecular_Weight>  (35) 
343.40018

>  <ALogP>  (35) 
2.016

>  <Num_RotatableBonds>  (35) 
5

>  <Molecular_PolarSurfaceArea>  (35) 
113.76

>  <Num_H_Acceptors>  (35) 
6

>  <Num_H_Donors>  (35) 
1

>  <ADMET_Solubility>  (35) 
-3.675

>  <ADMET_Solubility_Level>  (35) 
3

>  <ADMET_Unknown_AlogP98>  (35) 
0

>  <ADMET_BBB>  (35) 
-0.899

>  <ADMET_BBB_Level>  (35) 
3

>  <ADMET_EXT_CYP2D6>  (35) 
-4.57090315662762

>  <ADMET_EXT_CYP2D6#Prediction>  (35) 
false

>  <ADMET_EXT_CYP2D6_Applicability>  (35) 
All properties and OPS components are within expected ranges.
Unknown FCFP_2 feature: -2115181545: [*]NC(=C([*])[*])N([*])[*]

>  <ADMET_EXT_CYP2D6_Applicability#MD>  (35) 
16.9649855816853

>  <ADMET_EXT_CYP2D6_Applicability#MDpvalue>  (35) 
1.12838870570814e-08

>  <ADMET_EXT_Hepatotoxic>  (35) 
-4.48088044322924

>  <ADMET_EXT_Hepatotoxic#Prediction>  (35) 
false

>  <ADMET_EXT_Hepatotoxic_Applicability>  (35) 
All properties and OPS components are within expected ranges.
Unknown FCFP_2 feature: -2115181545: [*]NC(=C([*])[*])N([*])[*]

>  <ADMET_EXT_Hepatotoxic_Applicability#MD>  (35) 
13.7062103978837

>  <ADMET_EXT_Hepatotoxic_Applicability#MDpvalue>  (35) 
4.89473647630744e-08

>  <ADMET_Absorption_Level>  (35) 
0

>  <ADMET_EXT_PPB>  (35) 
-2.72616536947774

>  <ADMET_EXT_PPB#Prediction>  (35) 
false

>  <ADMET_EXT_PPB_Applicability>  (35) 
All properties and OPS components are within expected ranges.

>  <ADMET_EXT_PPB_Applicability#MD>  (35) 
15.1563433554208

>  <ADMET_EXT_PPB_Applicability#MDpvalue>  (35) 
2.77956815188876e-07

>  <ADMET_AlogP98>  (35) 
1.925

>  <ADMET_PSA_2D>  (35) 
84.685

$$$$
STOCK6S-51629
     RDKit          3D

 25 27  0  0  0  0  0  0  0  0999 V2000
    6.0535   -3.4974    0.0232 C   0  0  0  0  0  0  0  0  0  0  0  0
    6.0828   -4.8147   -0.0334 C   0  0  0  0  0  0  0  0  0  0  0  0
    8.1075   -4.1650   -0.0464 C   0  0  0  0  0  0  0  0  0  0  0  0
    7.3424   -3.1171    0.0085 N   0  0  0  0  0  0  0  0  0  0  0  0
    7.4528   -5.2609   -0.0815 N   0  0  0  0  0  0  0  0  0  0  0  0
    3.6187   -3.4550    0.1179 N   0  0  0  0  0  0  0  0  0  0  0  0
    4.9423   -5.5779   -0.0302 N   0  0  0  0  0  0  0  0  0  0  0  0
    3.6842   -4.9330    0.0448 C   0  0  0  0  0  0  0  0  0  0  0  0
    4.8371   -2.7362    0.0932 C   0  0  0  0  0  0  0  0  0  0  0  0
    9.4150   -3.7698   -0.0487 N   0  0  0  0  0  0  0  0  0  0  0  0
    8.0592   -1.9258    0.0430 C   0  0  0  0  0  0  0  0  0  0  0  0
    9.3479   -2.3364    0.0060 C   0  0  0  0  0  0  0  0  0  0  0  0
    2.3661   -2.6708    0.2382 C   0  0  0  0  0  0  0  0  0  0  0  0
   10.6606   -4.5544   -0.0859 C   0  0  0  0  0  0  0  0  0  0  0  0
    2.6788   -5.6504    0.0644 O   0  0  0  0  0  0  0  0  0  0  0  0
    4.8547   -1.5012    0.1549 O   0  0  0  0  0  0  0  0  0  0  0  0
   10.5660   -6.0812   -0.0295 C   0  0  0  0  0  0  0  0  0  0  0  0
   11.6120   -6.7395   -0.0435 O   0  0  0  0  0  0  0  0  0  0  0  0
    5.0254   -7.0073   -0.0852 C   0  0  0  0  0  0  0  0  0  0  0  0
    1.0520   -3.4525   -0.0076 C   0  0  0  0  0  0  0  0  0  0  0  0
    9.3609   -6.7577    0.0484 O   0  0  0  0  0  0  0  0  0  0  0  0
   10.5388   -1.4234    0.0235 C   0  0  0  0  0  0  0  0  0  0  0  0
   -0.1763   -2.5646    0.2666 C   0  0  0  0  0  0  0  0  0  0  0  0
   -1.4556   -3.3870    0.0215 C   0  0  0  0  0  0  0  0  0  0  0  0
   -0.1664   -1.3388   -0.6644 C   0  0  0  0  0  0  0  0  0  0  0  0
  2  1  2  0
  3  4  1  0
  4  1  1  0
  5  2  1  0
  6  9  1  0
  7  2  1  0
  8  6  1  0
  9  1  1  0
 10  3  1  0
 11  4  1  0
 12 11  2  0
 13  6  1  0
 14 10  1  0
 15  8  2  0
 16  9  2  0
 17 14  1  0
 18 17  2  0
 19  7  1  0
 20 13  1  0
 21 17  1  0
 22 12  1  0
 23 20  1  0
 24 23  1  0
 25 23  1  0
  5  3  2  0
  8  7  1  0
 12 10  1  0
M  END
>  <Name>  (36) 
STOCK6S-51629

>  <id>  (36) 
STOCK6S-51629

>  <index>  (36) 
SCD

>  <donors>  (36) 
1

>  <acceptors>  (36) 
9

>  <rotatable>  (36) 
5

>  <clogp>  (36) 
2.195

>  <rings>  (36) 
3

>  <tpsa>  (36) 
103.53

>  <iupac_name>  (36) 
2-(3-isopentyl-1,7-dimethyl-2,4-dioxo-3,4-dihydro-1H-imidazo[2,1-f]purin-8(2H)-yl)acetic acid

>  <Num_H_Acceptors_Lipinski>  (36) 
9

>  <Num_H_Donors_Lipinski>  (36) 
1

>  <Molecular_Weight>  (36) 
347.36904

>  <ALogP>  (36) 
1.26

>  <Num_RotatableBonds>  (36) 
5

>  <Molecular_PolarSurfaceArea>  (36) 
100.15

>  <Num_H_Acceptors>  (36) 
5

>  <Num_H_Donors>  (36) 
1

>  <ADMET_Solubility>  (36) 
-3.204

>  <ADMET_Solubility_Level>  (36) 
3

>  <ADMET_Unknown_AlogP98>  (36) 
0

>  <ADMET_BBB>  (36) 
-1.164

>  <ADMET_BBB_Level>  (36) 
3

>  <ADMET_EXT_CYP2D6>  (36) 
-9.90527434886727

>  <ADMET_EXT_CYP2D6#Prediction>  (36) 
false

>  <ADMET_EXT_CYP2D6_Applicability>  (36) 
All properties and OPS components are within expected ranges.
Unknown FCFP_2 feature: -1564503751: [*]:n:[c]1:n:[*]:[*]:n:1:[*]
Unknown FCFP_2 feature: -203115083: [*][c]1:[*]:[*]:[c](:[*]):n:1:[cH]:[*]

>  <ADMET_EXT_CYP2D6_Applicability#MD>  (36) 
16.0497693433833

>  <ADMET_EXT_CYP2D6_Applicability#MDpvalue>  (36) 
1.29109707328002e-07

>  <ADMET_EXT_Hepatotoxic>  (36) 
-5.63319443303256

>  <ADMET_EXT_Hepatotoxic#Prediction>  (36) 
false

>  <ADMET_EXT_Hepatotoxic_Applicability>  (36) 
All properties and OPS components are within expected ranges.
Unknown FCFP_2 feature: -1564503751: [*]:n:[c]1:n:[*]:[*]:n:1:[*]
Unknown FCFP_2 feature: -203115083: [*][c]1:[*]:[*]:[c](:[*]):n:1:[cH]:[*]

>  <ADMET_EXT_Hepatotoxic_Applicability#MD>  (36) 
10.9900824970747

>  <ADMET_EXT_Hepatotoxic_Applicability#MDpvalue>  (36) 
0.00639611838182715

>  <ADMET_Absorption_Level>  (36) 
0

>  <ADMET_EXT_PPB>  (36) 
-9.3869126552737

>  <ADMET_EXT_PPB#Prediction>  (36) 
false

>  <ADMET_EXT_PPB_Applicability>  (36) 
All properties and OPS components are within expected ranges.
Unknown FCFP_2 feature: -1564503751: [*]:n:[c]1:n:[*]:[*]:n:1:[*]

>  <ADMET_EXT_PPB_Applicability#MD>  (36) 
14.5879858988132

>  <ADMET_EXT_PPB_Applicability#MDpvalue>  (36) 
6.05506963233725e-06

>  <ADMET_AlogP98>  (36) 
1.924

>  <ADMET_PSA_2D>  (36) 
101.38

$$$$
STOCK6S-52566
     RDKit          3D

 28 31  0  0  0  0  0  0  0  0999 V2000
    6.6460   -5.3465    0.0493 N   0  0  0  0  0  0  0  0  0  0  0  0
    6.7125   -6.7121    0.0267 N   0  0  0  0  0  0  0  0  0  0  0  0
    7.7582   -4.6076    0.0411 C   0  0  0  0  0  0  0  0  0  0  0  0
    7.7631   -7.3383    0.0017 N   0  0  0  0  0  0  0  0  0  0  0  0
    9.0209   -5.2701    0.0114 C   0  0  0  0  0  0  0  0  0  0  0  0
    5.3689   -4.6502    0.0935 C   0  0  0  0  0  0  0  0  0  0  0  0
    4.1360   -5.5381    0.0097 C   0  0  0  0  0  0  0  0  0  0  0  0
    9.0054   -6.6924   -0.0062 C   0  0  0  0  0  0  0  0  0  0  0  0
   -3.5238   -6.5721    0.2352 N   0  0  0  0  0  0  0  0  0  0  0  0
    2.9347   -4.9381    0.1241 N   0  0  0  0  0  0  0  0  0  0  0  0
    7.6956   -3.3754    0.0630 O   0  0  0  0  0  0  0  0  0  0  0  0
    4.2471   -6.7585   -0.1547 O   0  0  0  0  0  0  0  0  0  0  0  0
   -6.2056   -5.6319   -0.2418 O   0  0  0  0  0  0  0  0  0  0  0  0
   -2.3205   -7.3918   -0.1418 C   0  0  0  0  0  0  0  0  0  0  0  0
    1.6516   -5.5693    0.0566 C   0  0  0  0  0  0  0  0  0  0  0  0
   -0.9363   -6.7083   -0.0687 C   0  0  0  0  0  0  0  0  0  0  0  0
   10.1688   -4.5917    0.0053 C   0  0  0  0  0  0  0  0  0  0  0  0
    0.4615   -4.7561    0.3424 C   0  0  0  0  0  0  0  0  0  0  0  0
    1.4956   -6.8553   -0.2604 C   0  0  0  0  0  0  0  0  0  0  0  0
   -0.7584   -5.2903    0.2901 C   0  0  0  0  0  0  0  0  0  0  0  0
    0.1466   -7.4455   -0.3246 C   0  0  0  0  0  0  0  0  0  0  0  0
   -3.8213   -5.4940   -0.7448 C   0  0  0  0  0  0  0  0  0  0  0  0
   -4.6918   -7.4787    0.2712 C   0  0  0  0  0  0  0  0  0  0  0  0
   -5.9544   -6.6932    0.6934 C   0  0  0  0  0  0  0  0  0  0  0  0
   -5.0868   -4.7289   -0.2869 C   0  0  0  0  0  0  0  0  0  0  0  0
   10.1460   -7.3795   -0.0290 C   0  0  0  0  0  0  0  0  0  0  0  0
   11.4368   -5.3254   -0.0208 C   0  0  0  0  0  0  0  0  0  0  0  0
   11.4274   -6.6583   -0.0366 C   0  0  0  0  0  0  0  0  0  0  0  0
  2  1  1  0
  3  1  1  0
  4  2  2  0
  5  3  1  0
  6  1  1  0
  7  6  1  0
  8  5  2  0
  9 14  1  0
 10  7  1  0
 11  3  2  0
 12  7  2  0
 13 24  1  0
 14 16  1  0
 15 10  1  0
 16 21  1  0
 17  5  1  0
 18 15  2  0
 19 15  1  0
 20 18  1  0
 21 19  2  0
 22  9  1  0
 23  9  1  0
 24 23  1  0
 25 22  1  0
 26  8  1  0
 27 17  2  0
 28 27  1  0
  4  8  1  0
 28 26  2  0
 16 20  2  0
 13 25  1  0
M  END
>  <Name>  (37) 
STOCK6S-52566

>  <id>  (37) 
STOCK6S-52566

>  <index>  (37) 
SC

>  <donors>  (37) 
1

>  <acceptors>  (37) 
8

>  <rotatable>  (37) 
6

>  <clogp>  (37) 
1.754

>  <rings>  (37) 
4

>  <tpsa>  (37) 
89.35

>  <iupac_name>  (37) 
N-(4-(morpholinomethyl)phenyl)-2-(4-oxobenzo[d][1,2,3]triazin-3(4H)-yl)acetamide

>  <Num_H_Acceptors_Lipinski>  (37) 
8

>  <Num_H_Donors_Lipinski>  (37) 
1

>  <Molecular_Weight>  (37) 
379.41244

>  <ALogP>  (37) 
2.229

>  <Num_RotatableBonds>  (37) 
5

>  <Molecular_PolarSurfaceArea>  (37) 
86.6

>  <Num_H_Acceptors>  (37) 
6

>  <Num_H_Donors>  (37) 
1

>  <ADMET_Solubility>  (37) 
-3.649

>  <ADMET_Solubility_Level>  (37) 
3

>  <ADMET_Unknown_AlogP98>  (37) 
0

>  <ADMET_BBB>  (37) 
-0.821

>  <ADMET_BBB_Level>  (37) 
3

>  <ADMET_EXT_CYP2D6>  (37) 
-7.19684292318319

>  <ADMET_EXT_CYP2D6#Prediction>  (37) 
false

>  <ADMET_EXT_CYP2D6_Applicability>  (37) 
All properties and OPS components are within expected ranges.
Unknown FCFP_2 feature: -1971196727: [*]\N=N/N([*])[*]
Unknown FCFP_2 feature: -1971703174: [*]\N=N/[c](:[*]):[*]

>  <ADMET_EXT_CYP2D6_Applicability#MD>  (37) 
15.2963274979784

>  <ADMET_EXT_CYP2D6_Applicability#MDpvalue>  (37) 
9.41598346820908e-07

>  <ADMET_EXT_Hepatotoxic>  (37) 
-5.64500952694266

>  <ADMET_EXT_Hepatotoxic#Prediction>  (37) 
false

>  <ADMET_EXT_Hepatotoxic_Applicability>  (37) 
All properties and OPS components are within expected ranges.

>  <ADMET_EXT_Hepatotoxic_Applicability#MD>  (37) 
10.8242161314017

>  <ADMET_EXT_Hepatotoxic_Applicability#MDpvalue>  (37) 
0.0106776102144276

>  <ADMET_Absorption_Level>  (37) 
0

>  <ADMET_EXT_PPB>  (37) 
-4.86477702773214

>  <ADMET_EXT_PPB#Prediction>  (37) 
false

>  <ADMET_EXT_PPB_Applicability>  (37) 
All properties and OPS components are within expected ranges.

>  <ADMET_EXT_PPB_Applicability#MD>  (37) 
13.0045304599555

>  <ADMET_EXT_PPB_Applicability#MDpvalue>  (37) 
0.00552341736445054

>  <ADMET_AlogP98>  (37) 
2.229

>  <ADMET_PSA_2D>  (37) 
85.693

$$$$
STOCK6S-52881
     RDKit          3D

 32 35  0  0  0  0  0  0  0  0999 V2000
    5.8692   -6.9665   -0.0043 C   0  0  0  0  0  0  0  0  0  0  0  0
    7.9441   -5.7112   -0.1203 N   0  0  0  0  0  0  0  0  0  0  0  0
    5.6201   -5.6429    0.0431 C   0  0  0  0  0  0  0  0  0  0  0  0
    6.8308   -4.8706   -0.0139 C   0  0  0  0  0  0  0  0  0  0  0  0
    7.4582   -7.1137   -0.0951 C   0  0  1  0  0  0  0  0  0  0  0  0
    4.8248   -8.1566    0.0175 C   0  0  0  0  0  0  0  0  0  0  0  0
    3.2969   -8.0639    0.0224 C   0  0  0  0  0  0  0  0  0  0  0  0
    9.3393   -5.2602   -0.3029 C   0  0  0  0  0  0  0  0  0  0  0  0
   10.9691   -3.4014   -0.2776 N   0  0  0  0  0  0  0  0  0  0  0  0
    2.5170   -9.3311    0.0224 C   0  0  0  0  0  0  0  0  0  0  0  0
    6.8292   -3.6359   -0.0241 O   0  0  0  0  0  0  0  0  0  0  0  0
    2.6253   -6.9220    0.0148 C   0  0  0  0  0  0  0  0  0  0  0  0
    5.2558   -9.3004    0.0016 O   0  0  0  0  0  0  0  0  0  0  0  0
    8.3709   -8.4297   -0.0583 C   0  0  0  0  0  0  0  0  0  0  0  0
    4.4057   -5.0083    0.1277 O   0  0  0  0  0  0  0  0  0  0  0  0
    9.5993   -3.7862    0.0807 C   0  0  0  0  0  0  0  0  0  0  0  0
   13.5667   -2.4176    0.3586 O   0  0  0  0  0  0  0  0  0  0  0  0
    1.1807   -9.2905    0.0176 C   0  0  0  0  0  0  0  0  0  0  0  0
    1.1709   -6.8827    0.0118 C   0  0  0  0  0  0  0  0  0  0  0  0
    0.4769   -8.0150    0.0131 C   0  0  0  0  0  0  0  0  0  0  0  0
    0.5350   -5.7033    0.0070 F   0  0  0  0  0  0  0  0  0  0  0  0
    3.1836  -10.5708    0.0244 O   0  0  0  0  0  0  0  0  0  0  0  0
   11.9472   -4.2403    0.4341 C   0  0  0  0  0  0  0  0  0  0  0  0
   11.1850   -1.9893    0.0703 C   0  0  0  0  0  0  0  0  0  0  0  0
   12.6179   -1.5874   -0.3347 C   0  0  0  0  0  0  0  0  0  0  0  0
   13.3690   -3.8029    0.0198 C   0  0  0  0  0  0  0  0  0  0  0  0
    7.8354   -9.6477   -0.0259 C   0  0  0  0  0  0  0  0  0  0  0  0
    9.8507   -8.3490   -0.0528 C   0  0  0  0  0  0  0  0  0  0  0  0
    2.2588  -11.6709    0.0196 C   0  0  0  0  0  0  0  0  0  0  0  0
    8.6631  -10.8556    0.0105 C   0  0  0  0  0  0  0  0  0  0  0  0
   10.6080   -9.4436   -0.0190 C   0  0  0  0  0  0  0  0  0  0  0  0
    9.9879  -10.7580    0.0138 C   0  0  0  0  0  0  0  0  0  0  0  0
  2  5  1  0
  3  1  2  0
  4  3  1  0
  5  1  1  0
  6  1  1  0
  7  6  1  0
  8  2  1  0
  9 16  1  0
 10  7  2  0
 11  4  2  0
 12  7  1  0
 13  6  2  0
  5 14  1  1
 15  3  1  0
 16  8  1  0
 17 25  1  0
 18 10  1  0
 19 12  2  0
 20 19  1  0
 21 19  1  0
 22 10  1  0
 23  9  1  0
 24  9  1  0
 25 24  1  0
 26 23  1  0
 27 14  2  0
 28 14  1  0
 29 22  1  0
 30 27  1  0
 31 28  2  0
 32 31  1  0
  4  2  1  0
 20 18  2  0
 32 30  2  0
 17 26  1  0
M  END
>  <Name>  (38) 
STOCK6S-52881

>  <id>  (38) 
STOCK6S-52881

>  <index>  (38) 
SCD

>  <donors>  (38) 
1

>  <acceptors>  (38) 
7

>  <rotatable>  (38) 
7

>  <clogp>  (38) 
3.797

>  <rings>  (38) 
4

>  <tpsa>  (38) 
79.31

>  <iupac_name>  (38) 
4-(5-fluoro-2-methoxybenzoyl)-3-hydroxy-1-(2-morpholinoethyl)-5-phenyl-1H-pyrrol-2(5H)-one

>  <Num_H_Acceptors_Lipinski>  (38) 
7

>  <Num_H_Donors_Lipinski>  (38) 
1

>  <Molecular_Weight>  (38) 
440.4641

>  <ALogP>  (38) 
2.401

>  <Num_RotatableBonds>  (38) 
7

>  <Molecular_PolarSurfaceArea>  (38) 
79.31

>  <Num_H_Acceptors>  (38) 
6

>  <Num_H_Donors>  (38) 
1

>  <ADMET_Solubility>  (38) 
-3.538

>  <ADMET_Solubility_Level>  (38) 
3

>  <ADMET_Unknown_AlogP98>  (38) 
0

>  <ADMET_BBB>  (38) 
-0.677

>  <ADMET_BBB_Level>  (38) 
3

>  <ADMET_EXT_CYP2D6>  (38) 
-2.44749418508325

>  <ADMET_EXT_CYP2D6#Prediction>  (38) 
false

>  <ADMET_EXT_CYP2D6_Applicability>  (38) 
All properties and OPS components are within expected ranges.

>  <ADMET_EXT_CYP2D6_Applicability#MD>  (38) 
16.2433410458745

>  <ADMET_EXT_CYP2D6_Applicability#MDpvalue>  (38) 
7.72248538360578e-08

>  <ADMET_EXT_Hepatotoxic>  (38) 
-5.11452540483841

>  <ADMET_EXT_Hepatotoxic#Prediction>  (38) 
false

>  <ADMET_EXT_Hepatotoxic_Applicability>  (38) 
All properties and OPS components are within expected ranges.

>  <ADMET_EXT_Hepatotoxic_Applicability#MD>  (38) 
11.4246281304329

>  <ADMET_EXT_Hepatotoxic_Applicability#MDpvalue>  (38) 
0.00147327948365548

>  <ADMET_Absorption_Level>  (38) 
0

>  <ADMET_EXT_PPB>  (38) 
-3.92937239425923

>  <ADMET_EXT_PPB#Prediction>  (38) 
false

>  <ADMET_EXT_PPB_Applicability>  (38) 
All properties and OPS components are within expected ranges.

>  <ADMET_EXT_PPB_Applicability#MD>  (38) 
13.9517645938974

>  <ADMET_EXT_PPB_Applicability#MDpvalue>  (38) 
0.000129686846915163

>  <ADMET_AlogP98>  (38) 
2.401

>  <ADMET_PSA_2D>  (38) 
79.982

$$$$
STOCK6S-52916
     RDKit          3D

 24 25  0  0  0  0  0  0  0  0999 V2000
    3.2995   -3.8468    0.0000 N   0  0  0  0  0  0  0  0  0  0  0  0
    4.1197   -2.6694   -0.0002 C   0  0  0  0  0  0  0  0  0  0  0  0
    1.9526   -3.4367   -0.0004 C   0  0  0  0  0  0  0  0  0  0  0  0
    0.8269   -4.1609    0.0003 C   0  0  0  0  0  0  0  0  0  0  0  0
    3.3511   -1.5686   -0.0001 C   0  0  0  0  0  0  0  0  0  0  0  0
    1.9619   -2.0499    0.0001 C   0  0  0  0  0  0  0  0  0  0  0  0
   -0.5224   -3.3761   -0.0002 C   0  0  0  0  0  0  0  0  0  0  0  0
    5.6106   -2.6525   -0.0002 C   0  0  0  0  0  0  0  0  0  0  0  0
   -0.4622   -2.0070    0.0002 C   0  0  0  0  0  0  0  0  0  0  0  0
    0.8585   -1.3242   -0.0001 C   0  0  0  0  0  0  0  0  0  0  0  0
    9.8357   -0.2529    0.0001 C   0  0  0  0  0  0  0  0  0  0  0  0
    8.3317   -0.1433    0.0001 C   0  0  0  0  0  0  0  0  0  0  0  0
    6.2550   -3.7071   -0.0003 O   0  0  0  0  0  0  0  0  0  0  0  0
   10.3753   -1.3658   -0.0002 O   0  0  0  0  0  0  0  0  0  0  0  0
    6.2821   -1.5040   -0.0002 N   0  0  0  0  0  0  0  0  0  0  0  0
    0.9595   -5.6078   -0.0001 O   0  0  0  0  0  0  0  0  0  0  0  0
    3.7916   -5.2061   -0.0001 C   0  0  0  0  0  0  0  0  0  0  0  0
   -1.7736   -4.1465    0.0001 O   0  0  0  0  0  0  0  0  0  0  0  0
    7.7239   -1.5574   -0.0003 C   0  0  0  0  0  0  0  0  0  0  0  0
   -1.6086   -1.1760    0.0000 O   0  0  0  0  0  0  0  0  0  0  0  0
   10.6197    0.8973    0.0005 O   0  0  0  0  0  0  0  0  0  0  0  0
   -0.2200   -6.4148    0.0000 C   0  0  0  0  0  0  0  0  0  0  0  0
   -3.0489   -3.4834    0.0001 C   0  0  0  0  0  0  0  0  0  0  0  0
   -1.2632    0.2177    0.0001 C   0  0  0  0  0  0  0  0  0  0  0  0
  2  1  1  0
  3  1  1  0
  4  3  2  0
  5  2  2  0
  6  3  1  0
  7  4  1  0
  8  2  1  0
  9 10  1  0
 10  6  2  0
 11 12  1  0
 12 19  1  0
 13  8  2  0
 14 11  2  0
 15  8  1  0
 16  4  1  0
 17  1  1  0
 18  7  1  0
 19 15  1  0
 20  9  1  0
 21 11  1  0
 22 16  1  0
 23 18  1  0
 24 20  1  0
  6  5  1  0
  7  9  2  0
M  END
>  <Name>  (39) 
STOCK6S-52916

>  <id>  (39) 
STOCK6S-52916

>  <index>  (39) 
SC

>  <donors>  (39) 
2

>  <acceptors>  (39) 
8

>  <rotatable>  (39) 
8

>  <clogp>  (39) 
1.032

>  <rings>  (39) 
2

>  <tpsa>  (39) 
99.02

>  <iupac_name>  (39) 
3-(5,6,7-trimethoxy-1-methyl-1H-indole-2-carboxamido)propanoic acid

>  <Num_H_Acceptors_Lipinski>  (39) 
8

>  <Num_H_Donors_Lipinski>  (39) 
2

>  <Molecular_Weight>  (39) 
336.3398

>  <ALogP>  (39) 
1.509

>  <Num_RotatableBonds>  (39) 
7

>  <Molecular_PolarSurfaceArea>  (39) 
99.02

>  <Num_H_Acceptors>  (39) 
6

>  <Num_H_Donors>  (39) 
2

>  <ADMET_Solubility>  (39) 
-2.751

>  <ADMET_Solubility_Level>  (39) 
3

>  <ADMET_Unknown_AlogP98>  (39) 
0

>  <ADMET_BBB>  (39) 
-1.276

>  <ADMET_BBB_Level>  (39) 
3

>  <ADMET_EXT_CYP2D6>  (39) 
-11.2229766544191

>  <ADMET_EXT_CYP2D6#Prediction>  (39) 
false

>  <ADMET_EXT_CYP2D6_Applicability>  (39) 
All properties and OPS components are within expected ranges.

>  <ADMET_EXT_CYP2D6_Applicability#MD>  (39) 
23.6082161819364

>  <ADMET_EXT_CYP2D6_Applicability#MDpvalue>  (39) 
3.56005297013343e-16

>  <ADMET_EXT_Hepatotoxic>  (39) 
-4.17765680459077

>  <ADMET_EXT_Hepatotoxic#Prediction>  (39) 
false

>  <ADMET_EXT_Hepatotoxic_Applicability>  (39) 
All properties and OPS components are within expected ranges.

>  <ADMET_EXT_Hepatotoxic_Applicability#MD>  (39) 
16.7690486797226

>  <ADMET_EXT_Hepatotoxic_Applicability#MDpvalue>  (39) 
3.15306521791359e-16

>  <ADMET_Absorption_Level>  (39) 
0

>  <ADMET_EXT_PPB>  (39) 
-3.23583850489361

>  <ADMET_EXT_PPB#Prediction>  (39) 
false

>  <ADMET_EXT_PPB_Applicability>  (39) 
All properties and OPS components are within expected ranges.

>  <ADMET_EXT_PPB_Applicability#MD>  (39) 
14.4390581398965

>  <ADMET_EXT_PPB_Applicability#MDpvalue>  (39) 
1.2878502923073e-05

>  <ADMET_AlogP98>  (39) 
1.509

>  <ADMET_PSA_2D>  (39) 
100.365

$$$$
STOCK6S-53260
     RDKit          3D

 32 35  0  0  0  0  0  0  0  0999 V2000
    5.3807   -4.6629    0.0186 C   0  0  0  0  0  0  0  0  0  0  0  0
    2.5002   -4.3482   -0.0585 C   0  0  0  0  0  0  0  0  0  0  0  0
    7.8151   -4.6684   -0.1017 N   0  0  0  0  0  0  0  0  0  0  0  0
    5.8608   -3.4469    0.3209 C   0  0  0  0  0  0  0  0  0  0  0  0
    3.8742   -5.1410   -0.0206 C   0  0  0  0  0  0  0  0  0  0  0  0
    7.3099   -3.4099    0.2446 C   0  0  0  0  0  0  0  0  0  0  0  0
    6.6634   -5.5962   -0.2621 C   0  0  1  0  0  0  0  0  0  0  0  0
    0.8279   -2.8037   -0.2769 N   0  0  0  0  0  0  0  0  0  0  0  0
    0.3193   -3.9974    0.0292 N   0  0  0  0  0  0  0  0  0  0  0  0
    2.0996   -2.9073   -0.3444 C   0  0  0  0  0  0  0  0  0  0  0  0
    1.3141   -4.9452    0.1434 C   0  0  0  0  0  0  0  0  0  0  0  0
    7.9671   -2.3818    0.4423 O   0  0  0  0  0  0  0  0  0  0  0  0
   12.7305   -3.5165    0.2886 N   0  0  0  0  0  0  0  0  0  0  0  0
    3.7265   -6.3488   -0.0654 O   0  0  0  0  0  0  0  0  0  0  0  0
    6.7698   -7.2087   -0.1595 C   0  0  0  0  0  0  0  0  0  0  0  0
    5.1514   -2.3559    0.6886 O   0  0  0  0  0  0  0  0  0  0  0  0
    9.2457   -5.0037   -0.3192 C   0  0  0  0  0  0  0  0  0  0  0  0
   14.9760   -1.8289   -0.2595 O   0  0  0  0  0  0  0  0  0  0  0  0
   10.2780   -3.9524    0.1570 C   0  0  0  0  0  0  0  0  0  0  0  0
   -1.0845   -4.2766    0.1543 C   0  0  0  0  0  0  0  0  0  0  0  0
    2.9280   -1.7417   -0.7568 C   0  0  0  0  0  0  0  0  0  0  0  0
    1.0298   -6.4014    0.4517 C   0  0  0  0  0  0  0  0  0  0  0  0
   11.6988   -4.4776   -0.1514 C   0  0  0  0  0  0  0  0  0  0  0  0
   14.0624   -4.0751   -0.0043 C   0  0  0  0  0  0  0  0  0  0  0  0
   12.5743   -2.2345   -0.4255 C   0  0  0  0  0  0  0  0  0  0  0  0
   13.6853   -1.2616    0.0323 C   0  0  0  0  0  0  0  0  0  0  0  0
   15.1474   -3.0721    0.4438 C   0  0  0  0  0  0  0  0  0  0  0  0
    5.6878   -7.9819   -0.1099 C   0  0  0  0  0  0  0  0  0  0  0  0
    8.0783   -7.9040   -0.1080 C   0  0  0  0  0  0  0  0  0  0  0  0
    8.1611   -9.2306   -0.0155 C   0  0  0  0  0  0  0  0  0  0  0  0
    5.7693   -9.4387   -0.0100 C   0  0  0  0  0  0  0  0  0  0  0  0
    6.9529  -10.0373    0.0361 C   0  0  0  0  0  0  0  0  0  0  0  0
  2  5  1  0
  3  7  1  0
  4  1  2  0
  5  1  1  0
  6  4  1  0
  7  1  1  0
  8 10  2  0
  9 11  1  0
 10  2  1  0
 11  2  2  0
 12  6  2  0
 13 23  1  0
 14  5  2  0
  7 15  1  1
 16  4  1  0
 17  3  1  0
 18 26  1  0
 19 17  1  0
 20  9  1  0
 21 10  1  0
 22 11  1  0
 23 19  1  0
 24 13  1  0
 25 13  1  0
 26 25  1  0
 27 24  1  0
 28 15  2  0
 29 15  1  0
 30 29  2  0
 31 28  1  0
 32 30  1  0
  6  3  1  0
  9  8  1  0
 32 31  2  0
 18 27  1  0
M  END
>  <Name>  (40) 
STOCK6S-53260

>  <id>  (40) 
STOCK6S-53260

>  <index>  (40) 
SCD

>  <donors>  (40) 
1

>  <acceptors>  (40) 
8

>  <rotatable>  (40) 
7

>  <clogp>  (40) 
2.608

>  <rings>  (40) 
4

>  <tpsa>  (40) 
87.9

>  <iupac_name>  (40) 
3-hydroxy-1-(3-morpholinopropyl)-5-phenyl-4-(1,3,5-trimethyl-1H-pyrazole-4-carbonyl)-1H-pyrrol-2(5H)-one

>  <Num_H_Acceptors_Lipinski>  (40) 
8

>  <Num_H_Donors_Lipinski>  (40) 
1

>  <Molecular_Weight>  (40) 
438.5194

>  <ALogP>  (40) 
1.352

>  <Num_RotatableBonds>  (40) 
7

>  <Molecular_PolarSurfaceArea>  (40) 
87.9

>  <Num_H_Acceptors>  (40) 
6

>  <Num_H_Donors>  (40) 
1

>  <ADMET_Solubility>  (40) 
-2.542

>  <ADMET_Solubility_Level>  (40) 
3

>  <ADMET_Unknown_AlogP98>  (40) 
0

>  <ADMET_BBB>  (40) 
-1.123

>  <ADMET_BBB_Level>  (40) 
3

>  <ADMET_EXT_CYP2D6>  (40) 
-7.7833367711812

>  <ADMET_EXT_CYP2D6#Prediction>  (40) 
false

>  <ADMET_EXT_CYP2D6_Applicability>  (40) 
All properties and OPS components are within expected ranges.

>  <ADMET_EXT_CYP2D6_Applicability#MD>  (40) 
17.8214785594876

>  <ADMET_EXT_CYP2D6_Applicability#MDpvalue>  (40) 
1.14434668335596e-09

>  <ADMET_EXT_Hepatotoxic>  (40) 
-8.78080711177982

>  <ADMET_EXT_Hepatotoxic#Prediction>  (40) 
false

>  <ADMET_EXT_Hepatotoxic_Applicability>  (40) 
All properties and OPS components are within expected ranges.

>  <ADMET_EXT_Hepatotoxic_Applicability#MD>  (40) 
15.0451756105834

>  <ADMET_EXT_Hepatotoxic_Applicability#MDpvalue>  (40) 
2.24904279740737e-11

>  <ADMET_Absorption_Level>  (40) 
0

>  <ADMET_EXT_PPB>  (40) 
-6.72998935809362

>  <ADMET_EXT_PPB#Prediction>  (40) 
false

>  <ADMET_EXT_PPB_Applicability>  (40) 
All properties and OPS components are within expected ranges.

>  <ADMET_EXT_PPB_Applicability#MD>  (40) 
14.5834142511645

>  <ADMET_EXT_PPB_Applicability#MDpvalue>  (40) 
6.19903901841415e-06

>  <ADMET_AlogP98>  (40) 
1.352

>  <ADMET_PSA_2D>  (40) 
87.661

$$$$
STOCK6S-53433
     RDKit          3D

 35 39  0  0  0  0  0  0  0  0999 V2000
    4.2682    0.6848    0.0522 C   0  0  0  0  0  0  0  0  0  0  0  0
    3.1796    1.4711    0.1044 C   0  0  0  0  0  0  0  0  0  0  0  0
    4.0916   -0.7355   -0.0740 C   0  0  0  0  0  0  0  0  0  0  0  0
    6.6071   -1.0044    0.0012 C   0  0  0  0  0  0  0  0  0  0  0  0
    5.2097   -1.5855   -0.1203 C   0  0  0  0  0  0  0  0  0  0  0  0
    5.5500    1.1827    0.1134 O   0  0  0  0  0  0  0  0  0  0  0  0
    6.6814    0.3354    0.1029 C   0  0  0  0  0  0  0  0  0  0  0  0
    1.8447    0.8589    0.0392 C   0  0  0  0  0  0  0  0  0  0  0  0
    0.7338    1.6157    0.1557 O   0  0  0  0  0  0  0  0  0  0  0  0
    1.9718    3.5924   -0.2118 N   0  0  0  0  0  0  0  0  0  0  0  0
    3.2683    2.9716    0.2333 C   0  0  0  0  0  0  0  0  0  0  0  0
    2.8843   -1.2826   -0.1505 C   0  0  0  0  0  0  0  0  0  0  0  0
    8.6983   -7.5582   -0.0077 C   0  0  0  0  0  0  0  0  0  0  0  0
    7.9283   -1.7483    0.0242 O   0  0  0  0  0  0  0  0  0  0  0  0
    0.8146    2.9741    0.4511 C   0  0  0  0  0  0  0  0  0  0  0  0
   -0.6180    7.9091   -0.3393 N   0  0  0  0  0  0  0  0  0  0  0  0
    8.4592   -6.0407    0.0016 C   0  0  0  0  0  0  0  0  0  0  0  0
    4.9590   -2.7757   -0.2661 O   0  0  0  0  0  0  0  0  0  0  0  0
    1.7125   -0.4550   -0.0833 C   0  0  0  0  0  0  0  0  0  0  0  0
    9.8796   -7.9173   -0.0140 O   0  0  0  0  0  0  0  0  0  0  0  0
   -2.9432    9.4813    0.2664 O   0  0  0  0  0  0  0  0  0  0  0  0
    9.6290   -5.1293   -0.0035 C   0  0  0  0  0  0  0  0  0  0  0  0
    7.2564   -5.4866    0.0144 C   0  0  0  0  0  0  0  0  0  0  0  0
    8.1001   -3.2178    0.0094 C   0  0  0  0  0  0  0  0  0  0  0  0
    0.6217    5.7078   -0.3438 C   0  0  0  0  0  0  0  0  0  0  0  0
    7.7010   -8.6508   -0.0116 O   0  0  0  0  0  0  0  0  0  0  0  0
    9.4610   -3.7982    0.0005 C   0  0  0  0  0  0  0  0  0  0  0  0
    7.0907   -4.0676    0.0213 C   0  0  0  0  0  0  0  0  0  0  0  0
    1.9677    5.0445    0.0984 C   0  0  0  0  0  0  0  0  0  0  0  0
    0.6250    7.2035    0.0747 C   0  0  0  0  0  0  0  0  0  0  0  0
   -0.5168    9.3250    0.0656 C   0  0  0  0  0  0  0  0  0  0  0  0
   -1.8087    7.3109    0.3010 C   0  0  0  0  0  0  0  0  0  0  0  0
   -1.7962   10.0794   -0.3614 C   0  0  0  0  0  0  0  0  0  0  0  0
   -3.0702    8.1028   -0.1333 C   0  0  0  0  0  0  0  0  0  0  0  0
    6.2769   -8.3808   -0.0078 C   0  0  0  0  0  0  0  0  0  0  0  0
  2  1  1  0
  3  1  2  0
  4  7  2  0
  5  3  1  0
  6  1  1  0
  7  6  1  0
  8  2  2  0
  9  8  1  0
 10 11  1  0
 11  2  1  0
 12  3  1  0
 13 17  1  0
 14  4  1  0
 15 10  1  0
 16 30  1  0
 17 23  2  0
 18  5  2  0
 19 12  2  0
 20 13  2  0
 21 34  1  0
 22 27  2  0
 23 28  1  0
 24 14  1  0
 25 29  1  0
 26 13  1  0
 27 24  1  0
 28 24  2  0
 29 10  1  0
 30 25  1  0
 31 16  1  0
 32 16  1  0
 33 31  1  0
 34 32  1  0
 35 26  1  0
  5  4  1  0
  8 19  1  0
 15  9  1  0
 22 17  1  0
 33 21  1  0
M  END
>  <Name>  (41) 
STOCK6S-53433

>  <id>  (41) 
STOCK6S-53433

>  <index>  (41) 
SCD

>  <donors>  (41) 
0

>  <acceptors>  (41) 
9

>  <rotatable>  (41) 
8

>  <clogp>  (41) 
3.618

>  <rings>  (41) 
5

>  <tpsa>  (41) 
90.68

>  <iupac_name>  (41) 
methyl 4-((9-(3-morpholinopropyl)-4-oxo-4,8,9,10-tetrahydrochromeno[8,7-e][1,3]oxazin-3-yl)oxy)benzoate

>  <Num_H_Acceptors_Lipinski>  (41) 
9

>  <Num_H_Donors_Lipinski>  (41) 
0

>  <Molecular_Weight>  (41) 
480.50972

>  <ALogP>  (41) 
2.254

>  <Num_RotatableBonds>  (41) 
8

>  <Molecular_PolarSurfaceArea>  (41) 
86.77

>  <Num_H_Acceptors>  (41) 
9

>  <Num_H_Donors>  (41) 
0

>  <ADMET_Solubility>  (41) 
-3.127

>  <ADMET_Solubility_Level>  (41) 
3

>  <ADMET_Unknown_AlogP98>  (41) 
0

>  <ADMET_BBB>  (41) 
-0.817

>  <ADMET_BBB_Level>  (41) 
3

>  <ADMET_EXT_CYP2D6>  (41) 
-1.06766940888982

>  <ADMET_EXT_CYP2D6#Prediction>  (41) 
false

>  <ADMET_EXT_CYP2D6_Applicability>  (41) 
All properties and OPS components are within expected ranges.
Unknown FCFP_2 feature: -587539325: [*]OCN([*])[*]

>  <ADMET_EXT_CYP2D6_Applicability#MD>  (41) 
14.1373031746013

>  <ADMET_EXT_CYP2D6_Applicability#MDpvalue>  (41) 
1.86772827786127e-05

>  <ADMET_EXT_Hepatotoxic>  (41) 
-7.98028425892937

>  <ADMET_EXT_Hepatotoxic#Prediction>  (41) 
false

>  <ADMET_EXT_Hepatotoxic_Applicability>  (41) 
All properties and OPS components are within expected ranges.
Unknown FCFP_2 feature: -587539325: [*]OCN([*])[*]

>  <ADMET_EXT_Hepatotoxic_Applicability#MD>  (41) 
13.1193359728637

>  <ADMET_EXT_Hepatotoxic_Applicability#MDpvalue>  (41) 
1.0083611578156e-06

>  <ADMET_Absorption_Level>  (41) 
0

>  <ADMET_EXT_PPB>  (41) 
-5.42460410465029

>  <ADMET_EXT_PPB#Prediction>  (41) 
false

>  <ADMET_EXT_PPB_Applicability>  (41) 
All properties and OPS components are within expected ranges.
Unknown FCFP_2 feature: -587539325: [*]OCN([*])[*]

>  <ADMET_EXT_PPB_Applicability#MD>  (41) 
12.1316005256119

>  <ADMET_EXT_PPB_Applicability#MDpvalue>  (41) 
0.0699041518831454

>  <ADMET_AlogP98>  (41) 
2.254

>  <ADMET_PSA_2D>  (41) 
85.957

$$$$
STOCK6S-53628
     RDKit          3D

 16 17  0  0  0  0  0  0  0  0999 V2000
    4.9076   -4.9541    0.0001 C   0  0  0  0  0  0  0  0  0  0  0  0
    5.7396   -3.8292    0.0001 N   0  0  0  0  0  0  0  0  0  0  0  0
    3.5692   -4.5212   -0.0001 C   0  0  0  0  0  0  0  0  0  0  0  0
    3.5553   -3.1218   -0.0002 C   0  0  0  0  0  0  0  0  0  0  0  0
    4.9713   -2.5491   -0.0001 C   0  0  0  0  0  0  0  0  0  0  0  0
    5.2857   -6.1298    0.0002 O   0  0  0  0  0  0  0  0  0  0  0  0
   10.0341   -1.3560    0.0003 C   0  0  0  0  0  0  0  0  0  0  0  0
    9.3546   -0.3235    0.0000 O   0  0  0  0  0  0  0  0  0  0  0  0
    7.1781   -3.9209    0.0002 C   0  0  0  0  0  0  0  0  0  0  0  0
   11.4236   -1.2750    0.0006 O   0  0  0  0  0  0  0  0  0  0  0  0
    2.4669   -5.2603   -0.0001 C   0  0  0  0  0  0  0  0  0  0  0  0
    7.8323   -2.5252    0.0001 C   0  0  0  0  0  0  0  0  0  0  0  0
    2.4191   -2.4351   -0.0003 C   0  0  0  0  0  0  0  0  0  0  0  0
    9.3636   -2.6985    0.0004 C   0  0  0  0  0  0  0  0  0  0  0  0
    1.1757   -4.5447   -0.0003 C   0  0  0  0  0  0  0  0  0  0  0  0
    1.1521   -3.2039   -0.0004 C   0  0  0  0  0  0  0  0  0  0  0  0
  2  1  1  0
  3  1  1  0
  4  3  2  0
  5  2  1  0
  6  1  2  0
  7 14  1  0
  8  7  2  0
  9  2  1  0
 10  7  1  0
 11  3  1  0
 12  9  1  0
 13  4  1  0
 14 12  1  0
 15 11  2  0
 16 15  1  0
  4  5  1  0
 16 13  2  0
M  END
>  <Name>  (42) 
STOCK6S-53628

>  <id>  (42) 
STOCK6S-53628

>  <index>  (42) 
SCD

>  <donors>  (42) 
1

>  <acceptors>  (42) 
4

>  <rotatable>  (42) 
4

>  <clogp>  (42) 
1.054

>  <rings>  (42) 
2

>  <tpsa>  (42) 
57.61

>  <iupac_name>  (42) 
4-(1-oxoisoindolin-2-yl)butanoic acid

>  <Num_H_Acceptors_Lipinski>  (42) 
4

>  <Num_H_Donors_Lipinski>  (42) 
1

>  <Molecular_Weight>  (42) 
219.23652

>  <ALogP>  (42) 
1.048

>  <Num_RotatableBonds>  (42) 
4

>  <Molecular_PolarSurfaceArea>  (42) 
57.61

>  <Num_H_Acceptors>  (42) 
3

>  <Num_H_Donors>  (42) 
1

>  <ADMET_Solubility>  (42) 
-1.556

>  <ADMET_Solubility_Level>  (42) 
4

>  <ADMET_Unknown_AlogP98>  (42) 
0

>  <ADMET_BBB>  (42) 
-0.76

>  <ADMET_BBB_Level>  (42) 
3

>  <ADMET_EXT_CYP2D6>  (42) 
-8.57478257162531

>  <ADMET_EXT_CYP2D6#Prediction>  (42) 
false

>  <ADMET_EXT_CYP2D6_Applicability>  (42) 
All properties and OPS components are within expected ranges.

>  <ADMET_EXT_CYP2D6_Applicability#MD>  (42) 
13.8060510603974

>  <ADMET_EXT_CYP2D6_Applicability#MDpvalue>  (42) 
4.28661829567014e-05

>  <ADMET_EXT_Hepatotoxic>  (42) 
-9.07395577908116

>  <ADMET_EXT_Hepatotoxic#Prediction>  (42) 
false

>  <ADMET_EXT_Hepatotoxic_Applicability>  (42) 
All properties and OPS components are within expected ranges.

>  <ADMET_EXT_Hepatotoxic_Applicability#MD>  (42) 
9.97189252720171

>  <ADMET_EXT_Hepatotoxic_Applicability#MDpvalue>  (42) 
0.0956165231601118

>  <ADMET_Absorption_Level>  (42) 
0

>  <ADMET_EXT_PPB>  (42) 
-1.79482432068488

>  <ADMET_EXT_PPB#Prediction>  (42) 
true

>  <ADMET_EXT_PPB_Applicability>  (42) 
All properties and OPS components are within expected ranges.

>  <ADMET_EXT_PPB_Applicability#MD>  (42) 
12.1466056287485

>  <ADMET_EXT_PPB_Applicability#MDpvalue>  (42) 
0.0674374516580329

>  <ADMET_AlogP98>  (42) 
1.048

>  <ADMET_PSA_2D>  (42) 
58.769

$$$$
STOCK6S-54948
     RDKit          3D

 16 17  0  0  0  0  0  0  0  0999 V2000
    5.4935   -4.5528    0.0043 C   0  0  0  0  0  0  0  0  0  0  0  0
    6.6694   -5.3161   -0.0350 N   0  0  0  0  0  0  0  0  0  0  0  0
    7.8990   -3.2823    0.0094 C   0  0  0  0  0  0  0  0  0  0  0  0
    5.5369   -3.2811    0.0422 N   0  0  0  0  0  0  0  0  0  0  0  0
    7.8144   -4.7660   -0.0341 C   0  0  0  0  0  0  0  0  0  0  0  0
    4.2622   -5.2009    0.0019 N   0  0  0  0  0  0  0  0  0  0  0  0
    9.1764   -2.5133    0.0148 C   0  0  0  0  0  0  0  0  0  0  0  0
    6.7575   -2.6010    0.0457 C   0  0  0  0  0  0  0  0  0  0  0  0
    9.1245   -1.2793    0.0518 O   0  0  0  0  0  0  0  0  0  0  0  0
   10.4255   -3.1354   -0.0202 O   0  0  0  0  0  0  0  0  0  0  0  0
    4.1447   -6.6329   -0.0426 C   0  0  0  0  0  0  0  0  0  0  0  0
    3.0117   -4.4932    0.0445 C   0  0  0  0  0  0  0  0  0  0  0  0
    9.0309   -5.6503   -0.0774 C   0  0  0  0  0  0  0  0  0  0  0  0
   11.4609   -2.1481   -0.0050 C   0  0  0  0  0  0  0  0  0  0  0  0
    2.0339   -5.6172   -0.3545 C   0  0  0  0  0  0  0  0  0  0  0  0
    2.6665   -6.8119    0.3548 C   0  0  0  0  0  0  0  0  0  0  0  0
  2  1  2  0
  3  8  1  0
  4  1  1  0
  5  2  1  0
  6  1  1  0
  7  3  1  0
  8  4  2  0
  9  7  2  0
 10  7  1  0
 11  6  1  0
 12  6  1  0
 13  5  1  0
 14 10  1  0
 15 12  1  0
 16 11  1  0
  3  5  2  0
 16 15  1  0
M  END
>  <Name>  (43) 
STOCK6S-54948

>  <id>  (43) 
STOCK6S-54948

>  <index>  (43) 
SCD

>  <donors>  (43) 
0

>  <acceptors>  (43) 
5

>  <rotatable>  (43) 
3

>  <clogp>  (43) 
1.235

>  <rings>  (43) 
2

>  <tpsa>  (43) 
55.32

>  <iupac_name>  (43) 
methyl 4-methyl-2-(pyrrolidin-1-yl)pyrimidine-5-carboxylate

>  <Num_H_Acceptors_Lipinski>  (43) 
5

>  <Num_H_Donors_Lipinski>  (43) 
0

>  <Molecular_Weight>  (43) 
221.2557

>  <ALogP>  (43) 
1.333

>  <Num_RotatableBonds>  (43) 
3

>  <Molecular_PolarSurfaceArea>  (43) 
55.32

>  <Num_H_Acceptors>  (43) 
5

>  <Num_H_Donors>  (43) 
0

>  <ADMET_Solubility>  (43) 
-2.363

>  <ADMET_Solubility_Level>  (43) 
3

>  <ADMET_Unknown_AlogP98>  (43) 
0

>  <ADMET_BBB>  (43) 
-0.566

>  <ADMET_BBB_Level>  (43) 
3

>  <ADMET_EXT_CYP2D6>  (43) 
-4.37182415652558

>  <ADMET_EXT_CYP2D6#Prediction>  (43) 
false

>  <ADMET_EXT_CYP2D6_Applicability>  (43) 
All properties and OPS components are within expected ranges.
Unknown FCFP_2 feature: -1410079687: [*]S[c]1:n:[*]:[*]:n:1

>  <ADMET_EXT_CYP2D6_Applicability#MD>  (43) 
15.8937530825374

>  <ADMET_EXT_CYP2D6_Applicability#MDpvalue>  (43) 
1.95200042042474e-07

>  <ADMET_EXT_Hepatotoxic>  (43) 
-5.69701321752492

>  <ADMET_EXT_Hepatotoxic#Prediction>  (43) 
false

>  <ADMET_EXT_Hepatotoxic_Applicability>  (43) 
All properties and OPS components are within expected ranges.

>  <ADMET_EXT_Hepatotoxic_Applicability#MD>  (43) 
13.3624480066873

>  <ADMET_EXT_Hepatotoxic_Applicability#MDpvalue>  (43) 
2.96143012446518e-07

>  <ADMET_Absorption_Level>  (43) 
0

>  <ADMET_EXT_PPB>  (43) 
-1.07356732674757

>  <ADMET_EXT_PPB#Prediction>  (43) 
true

>  <ADMET_EXT_PPB_Applicability>  (43) 
All properties and OPS components are within expected ranges.

>  <ADMET_EXT_PPB_Applicability#MD>  (43) 
13.5285524357661

>  <ADMET_EXT_PPB_Applicability#MDpvalue>  (43) 
0.00078460404402373

>  <ADMET_AlogP98>  (43) 
1.333

>  <ADMET_PSA_2D>  (43) 
52.105

$$$$
STOCK6S-55584
     RDKit          3D

 32 35  0  0  0  0  0  0  0  0999 V2000
    6.7023   -3.2273    0.0178 N   0  0  0  0  0  0  0  0  0  0  0  0
    6.7125   -5.4303    0.0319 N   0  0  0  0  0  0  0  0  0  0  0  0
    7.4828   -4.2564    0.0334 C   0  0  0  0  0  0  0  0  0  0  0  0
    5.3571   -3.7578    0.0083 C   0  0  0  0  0  0  0  0  0  0  0  0
    5.4120   -5.0667    0.0168 C   0  0  0  0  0  0  0  0  0  0  0  0
    0.4529   -3.7991   -0.0074 C   0  0  0  0  0  0  0  0  0  0  0  0
    1.6371   -3.1395   -0.0102 N   0  0  0  0  0  0  0  0  0  0  0  0
    4.0622   -3.0477   -0.0032 C   0  0  0  0  0  0  0  0  0  0  0  0
   13.3719   -2.0014   -0.1543 C   0  0  0  0  0  0  0  0  0  0  0  0
    4.2426   -5.9011    0.0129 C   0  0  0  0  0  0  0  0  0  0  0  0
   -0.8276   -3.0663   -0.0073 C   0  0  0  0  0  0  0  0  0  0  0  0
    2.9375   -3.7908   -0.0051 C   0  0  0  0  0  0  0  0  0  0  0  0
    0.3985   -5.0340   -0.0021 O   0  0  0  0  0  0  0  0  0  0  0  0
   14.2346   -0.7707   -0.3204 C   0  0  2  0  0  0  0  0  0  0  0  0
   13.9128   -3.1109   -0.0811 O   0  0  0  0  0  0  0  0  0  0  0  0
   15.5793   -0.9133    0.1594 O   0  0  0  0  0  0  0  0  0  0  0  0
   -2.0846   -3.8265   -0.0026 C   0  0  0  0  0  0  0  0  0  0  0  0
   -0.8616   -1.7336   -0.0097 C   0  0  0  0  0  0  0  0  0  0  0  0
   12.0346   -1.9118   -0.1077 N   0  0  0  0  0  0  0  0  0  0  0  0
    3.0534   -5.2951    0.0025 C   0  0  0  0  0  0  0  0  0  0  0  0
    7.2131   -6.7755    0.0441 C   0  0  0  0  0  0  0  0  0  0  0  0
    9.0148   -4.2688    0.0549 C   0  0  0  0  0  0  0  0  0  0  0  0
   -3.3005   -1.7256   -0.0035 C   0  0  0  0  0  0  0  0  0  0  0  0
   -3.2568   -3.1939   -0.0008 C   0  0  0  0  0  0  0  0  0  0  0  0
   -2.1599   -1.0334   -0.0078 C   0  0  0  0  0  0  0  0  0  0  0  0
   -4.5313   -1.0422   -0.0015 O   0  0  0  0  0  0  0  0  0  0  0  0
   16.0924    0.4598    0.2278 C   0  0  0  0  0  0  0  0  0  0  0  0
   11.2504   -3.1278    0.0245 C   0  0  0  0  0  0  0  0  0  0  0  0
   13.7068    0.5095    0.2714 C   0  0  0  0  0  0  0  0  0  0  0  0
   -5.6371   -1.9601    0.0032 C   0  0  0  0  0  0  0  0  0  0  0  0
    9.7045   -2.8761   -0.0237 C   0  0  0  0  0  0  0  0  0  0  0  0
   14.8859    1.3683   -0.1585 C   0  0  0  0  0  0  0  0  0  0  0  0
  2  3  1  0
  3  1  2  0
  4  1  1  0
  5  4  2  0
  6  7  1  0
  7 12  1  0
  8  4  1  0
  9 19  1  0
 10  5  1  0
 11  6  1  0
 12  8  2  0
 13  6  2  0
 14  9  1  1
 15  9  2  0
 16 14  1  0
 17 11  2  0
 18 11  1  0
 19 28  1  0
 20 12  1  0
 21  2  1  0
 22  3  1  0
 23 25  1  0
 24 17  1  0
 25 18  2  0
 26 23  1  0
 27 16  1  0
 28 31  1  0
 29 14  1  0
 30 26  1  0
 31 22  1  0
 32 29  1  0
  2  5  1  0
 20 10  2  0
 24 23  2  0
 32 27  1  0
M  END
>  <Name>  (44) 
STOCK6S-55584

>  <id>  (44) 
STOCK6S-55584

>  <index>  (44) 
SCD

>  <donors>  (44) 
2

>  <acceptors>  (44) 
8

>  <rotatable>  (44) 
10

>  <clogp>  (44) 
2.47

>  <rings>  (44) 
4

>  <tpsa>  (44) 
94.48

>  <iupac_name>  (44) 
N-(3-(5-(4-methoxybenzamido)-1-methyl-1H-benzo[d]imidazol-2-yl)propyl)tetrahydrofuran-2-carboxamide

>  <Num_H_Acceptors_Lipinski>  (44) 
8

>  <Num_H_Donors_Lipinski>  (44) 
2

>  <Molecular_Weight>  (44) 
436.50352

>  <ALogP>  (44) 
2.542

>  <Num_RotatableBonds>  (44) 
8

>  <Molecular_PolarSurfaceArea>  (44) 
94.48

>  <Num_H_Acceptors>  (44) 
5

>  <Num_H_Donors>  (44) 
2

>  <ADMET_Solubility>  (44) 
-3.74

>  <ADMET_Solubility_Level>  (44) 
3

>  <ADMET_Unknown_AlogP98>  (44) 
0

>  <ADMET_BBB>  (44) 
-0.867

>  <ADMET_BBB_Level>  (44) 
3

>  <ADMET_EXT_CYP2D6>  (44) 
-15.0179262618585

>  <ADMET_EXT_CYP2D6#Prediction>  (44) 
false

>  <ADMET_EXT_CYP2D6_Applicability>  (44) 
OPS PC6 out of range. Value: 4.3907. Training min, max, SD, explained variance: -5.674, 3.9834, 1.993, 0.0519.

>  <ADMET_EXT_CYP2D6_Applicability#MD>  (44) 
16.7236680542882

>  <ADMET_EXT_CYP2D6_Applicability#MDpvalue>  (44) 
2.14882042640467e-08

>  <ADMET_EXT_Hepatotoxic>  (44) 
-4.53708391395959

>  <ADMET_EXT_Hepatotoxic#Prediction>  (44) 
false

>  <ADMET_EXT_Hepatotoxic_Applicability>  (44) 
All properties and OPS components are within expected ranges.

>  <ADMET_EXT_Hepatotoxic_Applicability#MD>  (44) 
13.101402975728

>  <ADMET_EXT_Hepatotoxic_Applicability#MDpvalue>  (44) 
1.10194951872011e-06

>  <ADMET_Absorption_Level>  (44) 
0

>  <ADMET_EXT_PPB>  (44) 
6.17816621257883

>  <ADMET_EXT_PPB#Prediction>  (44) 
true

>  <ADMET_EXT_PPB_Applicability>  (44) 
All properties and OPS components are within expected ranges.

>  <ADMET_EXT_PPB_Applicability#MD>  (44) 
15.9958529537903

>  <ADMET_EXT_PPB_Applicability#MDpvalue>  (44) 
1.69220390414829e-09

>  <ADMET_AlogP98>  (44) 
2.542

>  <ADMET_PSA_2D>  (44) 
94.691

$$$$
STOCK6S-55873
     RDKit          3D

 30 32  0  0  0  0  0  0  0  0999 V2000
   12.3048   -2.5711    0.1928 C   0  0  0  0  0  0  0  0  0  0  0  0
   11.0030   -3.1439    0.1699 N   0  0  0  0  0  0  0  0  0  0  0  0
   13.2539   -3.5540    0.1831 N   0  0  0  0  0  0  0  0  0  0  0  0
    6.0301    0.2344   -0.7674 S   0  0  0  0  0  0  0  0  0  0  0  0
   12.6100   -4.7911    0.2021 C   0  0  0  0  0  0  0  0  0  0  0  0
    9.7628   -2.3558    0.0007 C   0  0  0  0  0  0  0  0  0  0  0  0
   11.0998   -4.6201    0.2099 C   0  0  0  0  0  0  0  0  0  0  0  0
    7.5097   -0.6966   -0.4204 C   0  0  0  0  0  0  0  0  0  0  0  0
    8.5376   -2.9097   -0.1631 C   0  0  0  0  0  0  0  0  0  0  0  0
    7.4072   -2.0155   -0.4134 C   0  0  0  0  0  0  0  0  0  0  0  0
    4.9750    0.3002    0.6224 N   0  0  0  0  0  0  0  0  0  0  0  0
    5.2786   -0.5401   -1.8305 O   0  0  0  0  0  0  0  0  0  0  0  0
    6.3399    1.6400   -1.2464 O   0  0  0  0  0  0  0  0  0  0  0  0
    9.8689   -0.8654   -0.0175 C   0  0  0  0  0  0  0  0  0  0  0  0
   12.5731   -1.3658    0.1489 O   0  0  0  0  0  0  0  0  0  0  0  0
    8.3372   -4.3473   -0.1579 O   0  0  0  0  0  0  0  0  0  0  0  0
   13.1658   -5.8962    0.1871 O   0  0  0  0  0  0  0  0  0  0  0  0
    8.8047   -0.0832   -0.2168 C   0  0  0  0  0  0  0  0  0  0  0  0
   14.6918   -3.2867    0.1284 C   0  0  0  0  0  0  0  0  0  0  0  0
   15.5359   -4.5295    0.0348 C   0  0  0  0  0  0  0  0  0  0  0  0
   16.8624   -4.4314   -0.0241 C   0  0  0  0  0  0  0  0  0  0  0  0
    7.0441   -4.9319   -0.6288 C   0  0  0  0  0  0  0  0  0  0  0  0
    5.6498   -4.6103   -0.0364 C   0  0  0  0  0  0  0  0  0  0  0  0
    5.3680    1.4390    1.4750 C   0  0  0  0  0  0  0  0  0  0  0  0
    3.5890    0.4898    0.1810 C   0  0  0  0  0  0  0  0  0  0  0  0
    4.4903   -5.1219   -0.7779 C   0  0  0  0  0  0  0  0  0  0  0  0
    5.4476   -3.8714    1.0584 C   0  0  0  0  0  0  0  0  0  0  0  0
    4.0752   -3.5648    1.4931 C   0  0  0  0  0  0  0  0  0  0  0  0
    3.2510   -4.8418   -0.3859 C   0  0  0  0  0  0  0  0  0  0  0  0
    3.0327   -4.0202    0.7990 C   0  0  0  0  0  0  0  0  0  0  0  0
  2  1  1  0
  3  1  1  0
  4  8  1  0
  5  3  1  0
  6  2  1  0
  7  2  1  0
  8 18  2  0
  9  6  1  0
 10  9  2  0
 11  4  1  0
 12  4  2  0
 13  4  2  0
 14  6  2  0
 15  1  2  0
 16  9  1  0
 17  5  2  0
 18 14  1  0
 19  3  1  0
 20 19  1  0
 21 20  2  0
 22 16  1  0
 23 22  1  0
 24 11  1  0
 25 11  1  0
 26 23  2  0
 27 23  1  0
 28 27  2  0
 29 26  1  0
 30 28  1  0
  7  5  1  0
  8 10  1  0
 30 29  2  0
M  END
>  <Name>  (45) 
STOCK6S-55873

>  <id>  (45) 
STOCK6S-55873

>  <index>  (45) 
SCD

>  <donors>  (45) 
0

>  <acceptors>  (45) 
8

>  <rotatable>  (45) 
8

>  <clogp>  (45) 
2.836

>  <rings>  (45) 
3

>  <tpsa>  (45) 
87.23

>  <iupac_name>  (45) 
4-(3-allyl-2,4-dioxoimidazolidin-1-yl)-3-(benzyloxy)-N,N-dimethylbenzenesulfonamide

>  <Num_H_Acceptors_Lipinski>  (45) 
8

>  <Num_H_Donors_Lipinski>  (45) 
0

>  <Molecular_Weight>  (45) 
429.48942

>  <ALogP>  (45) 
2.129

>  <Num_RotatableBonds>  (45) 
8

>  <Molecular_PolarSurfaceArea>  (45) 
95.61

>  <Num_H_Acceptors>  (45) 
5

>  <Num_H_Donors>  (45) 
0

>  <ADMET_Solubility>  (45) 
-3.768

>  <ADMET_Solubility_Level>  (45) 
3

>  <ADMET_Unknown_AlogP98>  (45) 
0

>  <ADMET_BBB>  (45) 
-0.729

>  <ADMET_BBB_Level>  (45) 
3

>  <ADMET_EXT_CYP2D6>  (45) 
-13.8980164237339

>  <ADMET_EXT_CYP2D6#Prediction>  (45) 
false

>  <ADMET_EXT_CYP2D6_Applicability>  (45) 
All properties and OPS components are within expected ranges.

>  <ADMET_EXT_CYP2D6_Applicability#MD>  (45) 
17.151742384916

>  <ADMET_EXT_CYP2D6_Applicability#MDpvalue>  (45) 
6.85170215417796e-09

>  <ADMET_EXT_Hepatotoxic>  (45) 
-7.22388321254263

>  <ADMET_EXT_Hepatotoxic#Prediction>  (45) 
false

>  <ADMET_EXT_Hepatotoxic_Applicability>  (45) 
All properties and OPS components are within expected ranges.

>  <ADMET_EXT_Hepatotoxic_Applicability#MD>  (45) 
12.7396068408934

>  <ADMET_EXT_Hepatotoxic_Applicability#MDpvalue>  (45) 
6.28576541589713e-06

>  <ADMET_Absorption_Level>  (45) 
0

>  <ADMET_EXT_PPB>  (45) 
2.30970978226822

>  <ADMET_EXT_PPB#Prediction>  (45) 
true

>  <ADMET_EXT_PPB_Applicability>  (45) 
All properties and OPS components are within expected ranges.

>  <ADMET_EXT_PPB_Applicability#MD>  (45) 
12.7291006570139

>  <ADMET_EXT_PPB_Applicability#MDpvalue>  (45) 
0.0135665014232623

>  <ADMET_AlogP98>  (45) 
2.653

>  <ADMET_PSA_2D>  (45) 
88.19

$$$$
STOCK6S-56640
     RDKit          3D

 28 31  0  0  0  0  0  0  0  0999 V2000
    6.0685   -5.6623   -0.9318 S   0  0  0  0  0  0  0  0  0  0  0  0
    1.8863   -0.5554    0.2156 S   0  0  0  0  0  0  0  0  0  0  0  0
    7.2032   -6.4216    0.1280 N   0  0  0  0  0  0  0  0  0  0  0  0
    4.6583   -4.8281   -0.2165 C   0  0  0  0  0  0  0  0  0  0  0  0
    3.3983   -1.3614    0.2055 N   0  0  0  0  0  0  0  0  0  0  0  0
    4.6365   -3.4942   -0.1909 C   0  0  0  0  0  0  0  0  0  0  0  0
    3.4311   -2.7750    0.2553 C   0  0  0  0  0  0  0  0  0  0  0  0
    8.5392   -6.0564    0.1469 C   0  0  0  0  0  0  0  0  0  0  0  0
    7.0171   -7.7765    0.6251 C   0  0  0  0  0  0  0  0  0  0  0  0
    6.7966   -4.6692   -1.8136 O   0  0  0  0  0  0  0  0  0  0  0  0
    5.5155   -6.7844   -1.7871 O   0  0  0  0  0  0  0  0  0  0  0  0
    0.9442   -1.0713    1.2871 O   0  0  0  0  0  0  0  0  0  0  0  0
    1.2587   -0.7652   -1.1499 O   0  0  0  0  0  0  0  0  0  0  0  0
    3.4647   -5.5839    0.1921 C   0  0  0  0  0  0  0  0  0  0  0  0
    9.2972   -7.0577    0.5234 C   0  0  0  0  0  0  0  0  0  0  0  0
    2.3517   -3.4648    0.6153 C   0  0  0  0  0  0  0  0  0  0  0  0
    8.5084   -8.2905    0.8420 C   0  0  0  0  0  0  0  0  0  0  0  0
    2.1683    1.1879    0.4544 C   0  0  0  0  0  0  0  0  0  0  0  0
    2.3715   -4.9279    0.5909 C   0  0  0  0  0  0  0  0  0  0  0  0
    4.5810   -0.6556   -0.2563 C   0  0  0  0  0  0  0  0  0  0  0  0
    3.4764   -6.9880    0.1326 O   0  0  0  0  0  0  0  0  0  0  0  0
    9.1109   -4.7717   -0.2288 C   0  0  0  0  0  0  0  0  0  0  0  0
   10.7485   -6.9370    0.5755 C   0  0  0  0  0  0  0  0  0  0  0  0
    2.2081   -7.5399    0.5273 C   0  0  0  0  0  0  0  0  0  0  0  0
    3.2909    1.6068   -0.4874 C   0  0  0  0  0  0  0  0  0  0  0  0
    4.5752    0.8882    0.0023 C   0  0  0  0  0  0  0  0  0  0  0  0
   10.4384   -4.6314   -0.1878 C   0  0  0  0  0  0  0  0  0  0  0  0
   11.2992   -5.7698    0.2302 C   0  0  0  0  0  0  0  0  0  0  0  0
  2  5  1  0
  3  1  1  0
  4  1  1  0
  5  7  1  0
  6  4  2  0
  7  6  1  0
  8  3  1  0
  9  3  1  0
 10  1  2  0
 11  1  2  0
 12  2  2  0
 13  2  2  0
 14  4  1  0
 15  8  2  0
 16 19  1  0
 17  9  1  0
 18  2  1  0
 19 14  2  0
 20  5  1  0
 21 14  1  0
 22  8  1  0
 23 15  1  0
 24 21  1  0
 25 26  1  0
 26 20  1  0
 27 22  2  0
 28 27  1  0
 17 15  1  0
 16  7  2  0
 23 28  2  0
 25 18  1  0
M  END
>  <Name>  (46) 
STOCK6S-56640

>  <id>  (46) 
STOCK6S-56640

>  <index>  (46) 
SCD

>  <donors>  (46) 
0

>  <acceptors>  (46) 
7

>  <rotatable>  (46) 
4

>  <clogp>  (46) 
2.415

>  <rings>  (46) 
4

>  <tpsa>  (46) 
83.99

>  <iupac_name>  (46) 
2-(3-(indolin-1-ylsulfonyl)-4-methoxyphenyl)-1,2-thiazinane 1,1-dioxide

>  <Num_H_Acceptors_Lipinski>  (46) 
7

>  <Num_H_Donors_Lipinski>  (46) 
0

>  <Molecular_Weight>  (46) 
422.51838

>  <ALogP>  (46) 
2.159

>  <Num_RotatableBonds>  (46) 
4

>  <Molecular_PolarSurfaceArea>  (46) 
100.75

>  <Num_H_Acceptors>  (46) 
5

>  <Num_H_Donors>  (46) 
0

>  <ADMET_Solubility>  (46) 
-3.99

>  <ADMET_Solubility_Level>  (46) 
3

>  <ADMET_Unknown_AlogP98>  (46) 
0

>  <ADMET_BBB>  (46) 
-0.829

>  <ADMET_BBB_Level>  (46) 
3

>  <ADMET_EXT_CYP2D6>  (46) 
-10.0652644622953

>  <ADMET_EXT_CYP2D6#Prediction>  (46) 
false

>  <ADMET_EXT_CYP2D6_Applicability>  (46) 
All properties and OPS components are within expected ranges.
Unknown FCFP_2 feature: -1096278874: [*]N1[*][*]:[c](:[*])S1(=O)=O
Unknown FCFP_2 feature: 1018882710: [*]N([*])S(=O)(=O)C

>  <ADMET_EXT_CYP2D6_Applicability#MD>  (46) 
16.6818305400649

>  <ADMET_EXT_CYP2D6_Applicability#MDpvalue>  (46) 
2.40251160041478e-08

>  <ADMET_EXT_Hepatotoxic>  (46) 
-5.43454308881243

>  <ADMET_EXT_Hepatotoxic#Prediction>  (46) 
false

>  <ADMET_EXT_Hepatotoxic_Applicability>  (46) 
All properties and OPS components are within expected ranges.
Unknown FCFP_2 feature: -1096278874: [*]N1[*][*]:[c](:[*])S1(=O)=O
Unknown FCFP_2 feature: 1018882710: [*]N([*])S(=O)(=O)C

>  <ADMET_EXT_Hepatotoxic_Applicability#MD>  (46) 
10.215579014726

>  <ADMET_EXT_Hepatotoxic_Applicability#MDpvalue>  (46) 
0.0551890220507

>  <ADMET_Absorption_Level>  (46) 
0

>  <ADMET_EXT_PPB>  (46) 
5.19302148624056

>  <ADMET_EXT_PPB#Prediction>  (46) 
true

>  <ADMET_EXT_PPB_Applicability>  (46) 
All properties and OPS components are within expected ranges.

>  <ADMET_EXT_PPB_Applicability#MD>  (46) 
11.9364714940017

>  <ADMET_EXT_PPB_Applicability#MDpvalue>  (46) 
0.108808340156663

>  <ADMET_AlogP98>  (46) 
2.159

>  <ADMET_PSA_2D>  (46) 
84.838

$$$$
STOCK6S-59884
     RDKit          3D

 33 36  0  0  0  0  0  0  0  0999 V2000
   10.6301   -2.8868    0.0203 N   0  0  0  0  0  0  0  0  0  0  0  0
   10.3608   -4.2888    0.0132 C   0  0  0  0  0  0  0  0  0  0  0  0
   12.5620   -3.9867    0.0076 C   0  0  0  0  0  0  0  0  0  0  0  0
   12.0298   -2.7879    0.0150 C   0  0  0  0  0  0  0  0  0  0  0  0
   11.5066   -4.9877    0.0055 C   0  0  0  0  0  0  0  0  0  0  0  0
    2.7704   -4.1058    0.0600 N   0  0  0  0  0  0  0  0  0  0  0  0
    9.0082   -4.9166    0.0038 C   0  0  0  0  0  0  0  0  0  0  0  0
    4.0609   -4.7173   -0.0259 C   0  0  0  0  0  0  0  0  0  0  0  0
    0.1353   -2.9363    0.1913 N   0  0  0  0  0  0  0  0  0  0  0  0
   14.0055   -4.1913    0.0020 C   0  0  0  0  0  0  0  0  0  0  0  0
   12.8518   -1.5877    0.0136 C   0  0  0  0  0  0  0  0  0  0  0  0
    5.3585   -3.9176    0.1506 C   0  0  0  0  0  0  0  0  0  0  0  0
    1.5892   -4.9303   -0.1707 C   0  0  0  0  0  0  0  0  0  0  0  0
    2.6371   -2.7145    0.4555 C   0  0  0  0  0  0  0  0  0  0  0  0
    4.1321   -5.9175   -0.3132 O   0  0  0  0  0  0  0  0  0  0  0  0
    8.9257   -6.1496   -0.0311 O   0  0  0  0  0  0  0  0  0  0  0  0
    7.8783   -4.1878    0.0211 N   0  0  0  0  0  0  0  0  0  0  0  0
   14.7891   -3.1051    0.0015 C   0  0  0  0  0  0  0  0  0  0  0  0
   14.1836   -1.7398    0.0076 C   0  0  0  0  0  0  0  0  0  0  0  0
   -1.0765   -2.1338   -0.2354 C   0  0  0  0  0  0  0  0  0  0  0  0
    1.3103   -2.0685   -0.0359 C   0  0  0  0  0  0  0  0  0  0  0  0
    0.3679   -4.1122   -0.6743 C   0  0  0  0  0  0  0  0  0  0  0  0
    6.5854   -4.8812   -0.0207 C   0  0  0  0  0  0  0  0  0  0  0  0
   14.5482   -5.4891   -0.0036 O   0  0  0  0  0  0  0  0  0  0  0  0
   12.2584   -0.3155    0.0177 O   0  0  0  0  0  0  0  0  0  0  0  0
   -2.4881   -2.7504   -0.0527 C   0  0  0  0  0  0  0  0  0  0  0  0
   -2.6929   -3.9964    0.3849 C   0  0  0  0  0  0  0  0  0  0  0  0
   -3.6562   -1.9071   -0.3667 C   0  0  0  0  0  0  0  0  0  0  0  0
   13.2533    0.7226    0.0130 C   0  0  0  0  0  0  0  0  0  0  0  0
   15.9871   -5.4535   -0.0080 C   0  0  0  0  0  0  0  0  0  0  0  0
   -4.8949   -2.3777   -0.2232 C   0  0  0  0  0  0  0  0  0  0  0  0
   -4.0612   -4.5165    0.5346 C   0  0  0  0  0  0  0  0  0  0  0  0
   -5.1078   -3.7452    0.2452 C   0  0  0  0  0  0  0  0  0  0  0  0
  2  1  1  0
  3  4  2  0
  4  1  1  0
  5  2  2  0
  6  8  1  0
  7  2  1  0
  8 12  1  0
  9 21  1  0
 10  3  1  0
 11  4  1  0
 12 23  1  0
 13  6  1  0
 14  6  1  0
 15  8  2  0
 16  7  2  0
 17  7  1  0
 18 19  1  0
 19 11  2  0
 20  9  1  0
 21 14  1  0
 22 13  1  0
 23 17  1  0
 24 10  1  0
 25 11  1  0
 26 20  1  0
 27 26  2  0
 28 26  1  0
 29 25  1  0
 30 24  1  0
 31 28  2  0
 32 27  1  0
 33 31  1  0
  3  5  1  0
 10 18  2  0
 22  9  1  0
 32 33  2  0
M  END
>  <Name>  (47) 
STOCK6S-59884

>  <id>  (47) 
STOCK6S-59884

>  <index>  (47) 
SCD

>  <donors>  (47) 
2

>  <acceptors>  (47) 
8

>  <rotatable>  (47) 
10

>  <clogp>  (47) 
3.605

>  <rings>  (47) 
4

>  <tpsa>  (47) 
86.9

>  <iupac_name>  (47) 
N-(3-(4-benzylpiperazin-1-yl)-3-oxopropyl)-4,7-dimethoxy-1H-indole-2-carboxamide

>  <Num_H_Acceptors_Lipinski>  (47) 
8

>  <Num_H_Donors_Lipinski>  (47) 
2

>  <Molecular_Weight>  (47) 
450.5301

>  <ALogP>  (47) 
2.644

>  <Num_RotatableBonds>  (47) 
8

>  <Molecular_PolarSurfaceArea>  (47) 
86.9

>  <Num_H_Acceptors>  (47) 
5

>  <Num_H_Donors>  (47) 
2

>  <ADMET_Solubility>  (47) 
-3.723

>  <ADMET_Solubility_Level>  (47) 
3

>  <ADMET_Unknown_AlogP98>  (47) 
0

>  <ADMET_BBB>  (47) 
-0.714

>  <ADMET_BBB_Level>  (47) 
3

>  <ADMET_EXT_CYP2D6>  (47) 
-9.965397376322

>  <ADMET_EXT_CYP2D6#Prediction>  (47) 
false

>  <ADMET_EXT_CYP2D6_Applicability>  (47) 
OPS PC6 out of range. Value: 4.2531. Training min, max, SD, explained variance: -5.674, 3.9834, 1.993, 0.0519.

>  <ADMET_EXT_CYP2D6_Applicability#MD>  (47) 
27.6474464485312

>  <ADMET_EXT_CYP2D6_Applicability#MDpvalue>  (47) 
2.49922627000345e-20

>  <ADMET_EXT_Hepatotoxic>  (47) 
-9.20816897911378

>  <ADMET_EXT_Hepatotoxic#Prediction>  (47) 
false

>  <ADMET_EXT_Hepatotoxic_Applicability>  (47) 
All properties and OPS components are within expected ranges.

>  <ADMET_EXT_Hepatotoxic_Applicability#MD>  (47) 
11.5710370329958

>  <ADMET_EXT_Hepatotoxic_Applicability#MDpvalue>  (47) 
0.000863450803042646

>  <ADMET_Absorption_Level>  (47) 
0

>  <ADMET_EXT_PPB>  (47) 
-1.88043915468413

>  <ADMET_EXT_PPB#Prediction>  (47) 
true

>  <ADMET_EXT_PPB_Applicability>  (47) 
All properties and OPS components are within expected ranges.

>  <ADMET_EXT_PPB_Applicability#MD>  (47) 
14.4613841394187

>  <ADMET_EXT_PPB_Applicability#MDpvalue>  (47) 
1.15173741585755e-05

>  <ADMET_AlogP98>  (47) 
2.644

>  <ADMET_PSA_2D>  (47) 
87.032

$$$$
STOCK6S-60234
     RDKit          3D

 26 28  0  0  0  0  0  0  0  0999 V2000
    6.6076   -3.5849   -0.0001 C   0  0  0  0  0  0  0  0  0  0  0  0
    6.6608   -4.9025    0.0001 C   0  0  0  0  0  0  0  0  0  0  0  0
    8.6856   -4.2378    0.0000 C   0  0  0  0  0  0  0  0  0  0  0  0
    7.9123   -3.1862   -0.0001 N   0  0  0  0  0  0  0  0  0  0  0  0
    4.1537   -3.6017   -0.0004 N   0  0  0  0  0  0  0  0  0  0  0  0
    8.0377   -5.3390    0.0001 N   0  0  0  0  0  0  0  0  0  0  0  0
    5.5362   -5.6859    0.0000 N   0  0  0  0  0  0  0  0  0  0  0  0
    4.2657   -5.0691   -0.0002 C   0  0  0  0  0  0  0  0  0  0  0  0
    5.3565   -2.8512   -0.0003 C   0  0  0  0  0  0  0  0  0  0  0  0
   10.0110   -3.8365    0.0000 N   0  0  0  0  0  0  0  0  0  0  0  0
    8.6733   -2.0135   -0.0001 C   0  0  0  0  0  0  0  0  0  0  0  0
    9.9625   -2.4040   -0.0001 C   0  0  0  0  0  0  0  0  0  0  0  0
    2.8795   -2.8139   -0.0007 C   0  0  0  0  0  0  0  0  0  0  0  0
    3.2837   -5.8085   -0.0003 O   0  0  0  0  0  0  0  0  0  0  0  0
    5.3275   -1.6172   -0.0004 O   0  0  0  0  0  0  0  0  0  0  0  0
    1.5050   -3.5062    0.0002 C   0  0  0  0  0  0  0  0  0  0  0  0
    1.3710   -4.7288    0.0019 O   0  0  0  0  0  0  0  0  0  0  0  0
    5.6477   -7.1139    0.0002 C   0  0  0  0  0  0  0  0  0  0  0  0
   11.2165   -4.6509    0.0000 C   0  0  0  0  0  0  0  0  0  0  0  0
    8.1836   -0.5923   -0.0002 C   0  0  0  0  0  0  0  0  0  0  0  0
   11.1548   -1.4915   -0.0001 C   0  0  0  0  0  0  0  0  0  0  0  0
    0.3537   -2.7257   -0.0008 O   0  0  0  0  0  0  0  0  0  0  0  0
   12.1373   -6.8982   -0.0002 O   0  0  0  0  0  0  0  0  0  0  0  0
   10.9114   -6.1630   -0.0002 C   0  0  0  0  0  0  0  0  0  0  0  0
   -0.7897   -3.5917    0.0004 C   0  0  0  0  0  0  0  0  0  0  0  0
   -2.0815   -2.7579   -0.0006 C   0  0  0  0  0  0  0  0  0  0  0  0
  2  1  2  0
  3  4  1  0
  4  1  1  0
  5  9  1  0
  6  2  1  0
  7  2  1  0
  8  5  1  0
  9  1  1  0
 10  3  1  0
 11  4  1  0
 12 11  2  0
 13  5  1  0
 14  8  2  0
 15  9  2  0
 16 13  1  0
 17 16  2  0
 18  7  1  0
 19 10  1  0
 20 11  1  0
 21 12  1  0
 22 16  1  0
 23 24  1  0
 24 19  1  0
 25 22  1  0
 26 25  1  0
  6  3  2  0
  8  7  1  0
 10 12  1  0
M  END
>  <Name>  (48) 
STOCK6S-60234

>  <id>  (48) 
STOCK6S-60234

>  <index>  (48) 
SCD

>  <donors>  (48) 
1

>  <acceptors>  (48) 
10

>  <rotatable>  (48) 
6

>  <clogp>  (48) 
1.13

>  <rings>  (48) 
3

>  <tpsa>  (48) 
112.76

>  <iupac_name>  (48) 
ethyl 2-(8-(2-hydroxyethyl)-1,6,7-trimethyl-2,4-dioxo-1H-imidazo[2,1-f]purin-3(2H,4H,8H)-yl)acetate

>  <Num_H_Acceptors_Lipinski>  (48) 
10

>  <Num_H_Donors_Lipinski>  (48) 
1

>  <Molecular_Weight>  (48) 
363.36844

>  <ALogP>  (48) 
-0.002

>  <Num_RotatableBonds>  (48) 
6

>  <Molecular_PolarSurfaceArea>  (48) 
109.38

>  <Num_H_Acceptors>  (48) 
6

>  <Num_H_Donors>  (48) 
1

>  <ADMET_Solubility>  (48) 
-2.124

>  <ADMET_Solubility_Level>  (48) 
3

>  <ADMET_Unknown_AlogP98>  (48) 
0

>  <ADMET_BBB>  (48) 
-1.695

>  <ADMET_BBB_Level>  (48) 
3

>  <ADMET_EXT_CYP2D6>  (48) 
-9.04866334656233

>  <ADMET_EXT_CYP2D6#Prediction>  (48) 
false

>  <ADMET_EXT_CYP2D6_Applicability>  (48) 
All properties and OPS components are within expected ranges.
Unknown FCFP_2 feature: -1564503751: [*]:n:[c]1:n:[*]:[*]:n:1:[*]
Unknown FCFP_2 feature: -203115083: [*][c]1:[*]:[*]:[c](:[*]):n:1:[cH]:[*]

>  <ADMET_EXT_CYP2D6_Applicability#MD>  (48) 
16.613803914307

>  <ADMET_EXT_CYP2D6_Applicability#MDpvalue>  (48) 
2.8803358353195e-08

>  <ADMET_EXT_Hepatotoxic>  (48) 
-7.93122768088295

>  <ADMET_EXT_Hepatotoxic#Prediction>  (48) 
false

>  <ADMET_EXT_Hepatotoxic_Applicability>  (48) 
All properties and OPS components are within expected ranges.
Unknown FCFP_2 feature: -1564503751: [*]:n:[c]1:n:[*]:[*]:n:1:[*]
Unknown FCFP_2 feature: -203115083: [*][c]1:[*]:[*]:[c](:[*]):n:1:[cH]:[*]

>  <ADMET_EXT_Hepatotoxic_Applicability#MD>  (48) 
11.6266401925773

>  <ADMET_EXT_Hepatotoxic_Applicability#MDpvalue>  (48) 
0.000701299713852165

>  <ADMET_Absorption_Level>  (48) 
0

>  <ADMET_EXT_PPB>  (48) 
-7.13795887591032

>  <ADMET_EXT_PPB#Prediction>  (48) 
false

>  <ADMET_EXT_PPB_Applicability>  (48) 
All properties and OPS components are within expected ranges.
Unknown FCFP_2 feature: -1564503751: [*]:n:[c]1:n:[*]:[*]:n:1:[*]

>  <ADMET_EXT_PPB_Applicability#MD>  (48) 
14.5088021112789

>  <ADMET_EXT_PPB_Applicability#MDpvalue>  (48) 
9.06965559617912e-06

>  <ADMET_AlogP98>  (48) 
0.661

>  <ADMET_PSA_2D>  (48) 
110.31

$$$$
STOCK6S-62389
     RDKit          3D

 33 37  0  0  0  0  0  0  0  0999 V2000
    1.1374   -5.3768    0.2070 C   0  0  0  0  0  0  0  0  0  0  0  0
    0.0492   -6.2262    0.1182 N   0  0  0  0  0  0  0  0  0  0  0  0
    2.1892   -6.0974    0.0986 N   0  0  0  0  0  0  0  0  0  0  0  0
    7.7500   -2.4802   -0.0498 N   0  0  0  0  0  0  0  0  0  0  0  0
    5.4928   -2.1362    0.1779 C   0  0  2  0  0  0  0  0  0  0  0  0
    1.8080   -7.4126   -0.0672 N   0  0  0  0  0  0  0  0  0  0  0  0
    7.0845   -3.7188   -0.1617 C   0  0  0  0  0  0  0  0  0  0  0  0
    4.1343   -1.3495    0.0423 C   0  0  0  0  0  0  0  0  0  0  0  0
    2.7854   -1.9473   -0.0350 N   0  0  0  0  0  0  0  0  0  0  0  0
    0.5361   -7.4479   -0.0499 C   0  0  0  0  0  0  0  0  0  0  0  0
    1.1807   -3.8588    0.4082 C   0  0  1  0  0  0  0  0  0  0  0  0
    6.8177   -1.3564   -0.1288 C   0  0  0  0  0  0  0  0  0  0  0  0
    5.6689   -3.5417   -0.4355 C   0  0  0  0  0  0  0  0  0  0  0  0
    2.5565   -3.3935   -0.0291 C   0  0  0  0  0  0  0  0  0  0  0  0
   13.5114   -2.1272    0.0495 C   0  0  0  0  0  0  0  0  0  0  0  0
    9.1664   -2.3664    0.0132 C   0  0  0  0  0  0  0  0  0  0  0  0
   -1.3176   -5.9719    0.2039 C   0  0  0  0  0  0  0  0  0  0  0  0
   11.9842   -2.2554    0.0475 C   0  0  0  0  0  0  0  0  0  0  0  0
    7.6193   -4.8320   -0.1764 O   0  0  0  0  0  0  0  0  0  0  0  0
   -0.3166   -8.6028   -0.1830 C   0  0  0  0  0  0  0  0  0  0  0  0
    4.2026   -0.1160   -0.0063 O   0  0  0  0  0  0  0  0  0  0  0  0
   13.9503   -0.9711    0.0358 O   0  0  0  0  0  0  0  0  0  0  0  0
   -2.1575   -7.0071    0.0914 C   0  0  0  0  0  0  0  0  0  0  0  0
   -1.6327   -8.3906   -0.1161 C   0  0  0  0  0  0  0  0  0  0  0  0
    9.9018   -3.4689    0.0404 C   0  0  0  0  0  0  0  0  0  0  0  0
    9.8393   -1.0621    0.0072 C   0  0  0  0  0  0  0  0  0  0  0  0
   11.1764   -1.0118    0.0220 C   0  0  0  0  0  0  0  0  0  0  0  0
   11.3356   -3.4186    0.0620 C   0  0  0  0  0  0  0  0  0  0  0  0
    1.6604   -1.0371   -0.2406 C   0  0  0  0  0  0  0  0  0  0  0  0
   14.5311   -3.1928    0.0545 O   0  0  0  0  0  0  0  0  0  0  0  0
    0.0873   -3.0483   -0.2781 C   0  0  0  0  0  0  0  0  0  0  0  0
    0.2924   -1.6104    0.2199 C   0  0  0  0  0  0  0  0  0  0  0  0
   14.1603   -4.5919    0.0605 C   0  0  0  0  0  0  0  0  0  0  0  0
  2  1  1  0
  3  1  2  0
  4 12  1  0
  5  8  1  6
  6  3  1  0
  7 13  1  0
  8  9  1  0
  9 14  1  0
 10  2  1  0
 11  1  1  6
 12  5  1  0
 13  5  1  0
 14 11  1  0
 15 18  1  0
 16  4  1  0
 17  2  1  0
 18 27  2  0
 19  7  2  0
 20 10  1  0
 21  8  2  0
 22 15  2  0
 23 17  2  0
 24 23  1  0
 25 16  1  0
 26 16  2  0
 27 26  1  0
 28 25  2  0
 29 32  1  0
 30 15  1  0
 31 11  1  0
 32 31  1  0
 33 30  1  0
 10  6  2  0
  9 29  1  0
 24 20  2  0
  4  7  1  0
 28 18  1  0
M  END
>  <Name>  (49) 
STOCK6S-62389

>  <id>  (49) 
STOCK6S-62389

>  <index>  (49) 
SC

>  <donors>  (49) 
0

>  <acceptors>  (49) 
9

>  <rotatable>  (49) 
6

>  <clogp>  (49) 
2.525

>  <rings>  (49) 
5

>  <tpsa>  (49) 
97.11

>  <iupac_name>  (49) 
methyl 4-(4-(3-([1,2,4]triazolo[4,3-a]pyridin-3-yl)piperidine-1-carbonyl)-2-oxopyrrolidin-1-yl)benzoate

>  <Num_H_Acceptors_Lipinski>  (49) 
9

>  <Num_H_Donors_Lipinski>  (49) 
0

>  <Molecular_Weight>  (49) 
447.4864

>  <ALogP>  (49) 
1.393

>  <Num_RotatableBonds>  (49) 
5

>  <Molecular_PolarSurfaceArea>  (49) 
97.11

>  <Num_H_Acceptors>  (49) 
6

>  <Num_H_Donors>  (49) 
0

>  <ADMET_Solubility>  (49) 
-3.199

>  <ADMET_Solubility_Level>  (49) 
3

>  <ADMET_Unknown_AlogP98>  (49) 
0

>  <ADMET_BBB>  (49) 
-1.152

>  <ADMET_BBB_Level>  (49) 
3

>  <ADMET_EXT_CYP2D6>  (49) 
-12.4073233585494

>  <ADMET_EXT_CYP2D6#Prediction>  (49) 
false

>  <ADMET_EXT_CYP2D6_Applicability>  (49) 
All properties and OPS components are within expected ranges.
Unknown FCFP_2 feature: -203115083: [*][c]1:[*]:[*]:[c](:[*]):n:1:[cH]:[*]
Unknown FCFP_2 feature: -1564473960: [*][c](:[*]):[c]1:n:[*]:[*]:n:1:[*]

>  <ADMET_EXT_CYP2D6_Applicability#MD>  (49) 
18.0974845728812

>  <ADMET_EXT_CYP2D6_Applicability#MDpvalue>  (49) 
5.47670704702578e-10

>  <ADMET_EXT_Hepatotoxic>  (49) 
-6.56092371113139

>  <ADMET_EXT_Hepatotoxic#Prediction>  (49) 
false

>  <ADMET_EXT_Hepatotoxic_Applicability>  (49) 
All properties and OPS components are within expected ranges.
Unknown FCFP_2 feature: -203115083: [*][c]1:[*]:[*]:[c](:[*]):n:1:[cH]:[*]

>  <ADMET_EXT_Hepatotoxic_Applicability#MD>  (49) 
16.5494648368388

>  <ADMET_EXT_Hepatotoxic_Applicability#MDpvalue>  (49) 
1.39842876743178e-15

>  <ADMET_Absorption_Level>  (49) 
0

>  <ADMET_EXT_PPB>  (49) 
0.958688810712696

>  <ADMET_EXT_PPB#Prediction>  (49) 
true

>  <ADMET_EXT_PPB_Applicability>  (49) 
All properties and OPS components are within expected ranges.

>  <ADMET_EXT_PPB_Applicability#MD>  (49) 
16.0102189094545

>  <ADMET_EXT_PPB_Applicability#MDpvalue>  (49) 
1.54238378733311e-09

>  <ADMET_AlogP98>  (49) 
1.655

>  <ADMET_PSA_2D>  (49) 
95.407

$$$$
STOCK6S-65859
     RDKit          3D

 25 27  0  0  0  0  0  0  0  0999 V2000
    3.0350   -5.3063   -0.0018 N   0  0  0  0  0  0  0  0  0  0  0  0
    4.5632   -3.5247   -0.0003 C   0  0  0  0  0  0  0  0  0  0  0  0
    4.3542   -4.9829   -0.0065 C   0  0  0  0  0  0  0  0  0  0  0  0
    2.3553   -4.0808    0.0034 C   0  0  0  0  0  0  0  0  0  0  0  0
    3.3486   -2.9517    0.0052 C   0  0  0  0  0  0  0  0  0  0  0  0
    5.8649   -2.7763    0.0004 N   0  0  0  0  0  0  0  0  0  0  0  0
    2.3832   -6.6883   -0.0032 C   0  0  0  0  0  0  0  0  0  0  0  0
    5.2428   -5.7946   -0.0143 O   0  0  0  0  0  0  0  0  0  0  0  0
    1.1249   -3.9473    0.0074 O   0  0  0  0  0  0  0  0  0  0  0  0
    7.2408   -3.3529    0.0006 C   0  0  0  0  0  0  0  0  0  0  0  0
    7.4440   -4.6568    0.0018 C   0  0  0  0  0  0  0  0  0  0  0  0
    8.7124   -5.2937    0.0014 C   0  0  0  0  0  0  0  0  0  0  0  0
    3.2063   -8.0790   -0.0008 C   0  0  0  0  0  0  0  0  0  0  0  0
    8.7166   -6.7084    0.0016 O   0  0  0  0  0  0  0  0  0  0  0  0
   11.0603   -9.5157   -0.0013 O   0  0  0  0  0  0  0  0  0  0  0  0
    9.6519   -3.0623   -0.0003 C   0  0  0  0  0  0  0  0  0  0  0  0
    8.4334   -2.4978   -0.0003 C   0  0  0  0  0  0  0  0  0  0  0  0
    9.8088   -4.5424    0.0004 C   0  0  0  0  0  0  0  0  0  0  0  0
    9.7998   -8.8450   -0.0002 C   0  0  0  0  0  0  0  0  0  0  0  0
   10.0071   -7.3089    0.0005 C   0  0  0  0  0  0  0  0  0  0  0  0
    4.6809   -8.2072    0.0051 C   0  0  0  0  0  0  0  0  0  0  0  0
    2.5130   -9.2174   -0.0046 C   0  0  0  0  0  0  0  0  0  0  0  0
    3.2080  -10.5263   -0.0034 C   0  0  0  0  0  0  0  0  0  0  0  0
    5.3083   -9.3772    0.0058 C   0  0  0  0  0  0  0  0  0  0  0  0
    4.5380  -10.5949    0.0013 C   0  0  0  0  0  0  0  0  0  0  0  0
  2  3  1  0
  3  1  1  0
  4  1  1  0
  5  4  1  0
  6  2  1  0
  7  1  1  0
  8  3  2  0
  9  4  2  0
 10  6  1  0
 11 10  2  0
 12 11  1  0
 13  7  1  0
 14 12  1  0
 15 19  1  0
 16 17  2  0
 17 10  1  0
 18 16  1  0
 19 20  1  0
 20 14  1  0
 21 13  2  0
 22 13  1  0
 23 22  2  0
 24 21  1  0
 25 23  1  0
  2  5  2  0
 25 24  2  0
 12 18  2  0
M  END
>  <Name>  (50) 
STOCK6S-65859

>  <id>  (50) 
STOCK6S-65859

>  <index>  (50) 
SCD

>  <donors>  (50) 
2

>  <acceptors>  (50) 
6

>  <rotatable>  (50) 
7

>  <clogp>  (50) 
3.666

>  <rings>  (50) 
3

>  <tpsa>  (50) 
78.87

>  <iupac_name>  (50) 
1-benzyl-3-((3-(2-hydroxyethoxy)phenyl)amino)-1H-pyrrole-2,5-dione

>  <Num_H_Acceptors_Lipinski>  (50) 
6

>  <Num_H_Donors_Lipinski>  (50) 
2

>  <Molecular_Weight>  (50) 
338.35722

>  <ALogP>  (50) 
1.929

>  <Num_RotatableBonds>  (50) 
7

>  <Molecular_PolarSurfaceArea>  (50) 
78.87

>  <Num_H_Acceptors>  (50) 
5

>  <Num_H_Donors>  (50) 
2

>  <ADMET_Solubility>  (50) 
-3.13

>  <ADMET_Solubility_Level>  (50) 
3

>  <ADMET_Unknown_AlogP98>  (50) 
0

>  <ADMET_BBB>  (50) 
-0.67

>  <ADMET_BBB_Level>  (50) 
3

>  <ADMET_EXT_CYP2D6>  (50) 
-3.6282683361364

>  <ADMET_EXT_CYP2D6#Prediction>  (50) 
false

>  <ADMET_EXT_CYP2D6_Applicability>  (50) 
All properties and OPS components are within expected ranges.
Unknown FCFP_2 feature: 436975416: [*]CC(=C([*])[*])N[*]

>  <ADMET_EXT_CYP2D6_Applicability#MD>  (50) 
12.3412969166131

>  <ADMET_EXT_CYP2D6_Applicability#MDpvalue>  (50) 
0.00139164720115932

>  <ADMET_EXT_Hepatotoxic>  (50) 
-5.14418582533347

>  <ADMET_EXT_Hepatotoxic#Prediction>  (50) 
false

>  <ADMET_EXT_Hepatotoxic_Applicability>  (50) 
OPS PC15 out of range. Value: -4.2242. Training min, max, SD, explained variance: -4.0077, 3.8442, 1.218, 0.0185.

>  <ADMET_EXT_Hepatotoxic_Applicability#MD>  (50) 
13.6669494679939

>  <ADMET_EXT_Hepatotoxic_Applicability#MDpvalue>  (50) 
6.03530964523514e-08

>  <ADMET_Absorption_Level>  (50) 
0

>  <ADMET_EXT_PPB>  (50) 
-3.67106507205422

>  <ADMET_EXT_PPB#Prediction>  (50) 
false

>  <ADMET_EXT_PPB_Applicability>  (50) 
All properties and OPS components are within expected ranges.

>  <ADMET_EXT_PPB_Applicability#MD>  (50) 
12.0806489286306

>  <ADMET_EXT_PPB_Applicability#MDpvalue>  (50) 
0.0788135929871307

>  <ADMET_AlogP98>  (50) 
2.453

>  <ADMET_PSA_2D>  (50) 
80.509

$$$$
STOCK6S-65906
     RDKit          3D

 21 23  0  0  0  0  0  0  0  0999 V2000
    4.2036    0.8800    0.0001 C   0  0  0  0  0  0  0  0  0  0  0  0
    4.1142   -0.4342    0.0001 C   0  0  0  0  0  0  0  0  0  0  0  0
    5.4824    1.5493    0.0000 N   0  0  0  0  0  0  0  0  0  0  0  0
    2.0510    0.2326    0.0001 C   0  0  0  0  0  0  0  0  0  0  0  0
    6.6442    0.7478    0.0000 C   0  0  0  0  0  0  0  0  0  0  0  0
    6.5470   -0.6650    0.0000 N   0  0  0  0  0  0  0  0  0  0  0  0
    2.8769    1.3532    0.0001 N   0  0  0  0  0  0  0  0  0  0  0  0
    2.7493   -0.8434    0.0001 N   0  0  0  0  0  0  0  0  0  0  0  0
    5.2863   -1.2821    0.0001 C   0  0  0  0  0  0  0  0  0  0  0  0
   -0.5090   -1.2476   -0.0001 C   0  0  0  0  0  0  0  0  0  0  0  0
    0.2772    0.3381    0.0002 S   0  0  0  0  0  0  0  0  0  0  0  0
   -1.8447   -1.4445    0.0000 N   0  0  0  0  0  0  0  0  0  0  0  0
    0.0676   -2.3780   -0.0003 N   0  0  0  0  0  0  0  0  0  0  0  0
   -0.9132   -3.3457   -0.0004 N   0  0  0  0  0  0  0  0  0  0  0  0
   -2.0701   -2.7943   -0.0002 C   0  0  0  0  0  0  0  0  0  0  0  0
    7.7571    1.2859    0.0000 O   0  0  0  0  0  0  0  0  0  0  0  0
    5.1830   -2.5133    0.0001 O   0  0  0  0  0  0  0  0  0  0  0  0
    5.6502    2.9842    0.0000 C   0  0  0  0  0  0  0  0  0  0  0  0
    7.7391   -1.4628    0.0000 C   0  0  0  0  0  0  0  0  0  0  0  0
    2.3756    2.7102    0.0001 C   0  0  0  0  0  0  0  0  0  0  0  0
   -2.8474   -0.4174    0.0003 C   0  0  0  0  0  0  0  0  0  0  0  0
  2  1  2  0
  3  1  1  0
  4  7  1  0
  5  3  1  0
  6  5  1  0
  7  1  1  0
  8  2  1  0
  9  2  1  0
 10 11  1  0
 11  4  1  0
 12 10  1  0
 13 10  2  0
 14 13  1  0
 15 12  1  0
 16  5  2  0
 17  9  2  0
 18  3  1  0
 19  6  1  0
 20  7  1  0
 21 12  1  0
  9  6  1  0
  4  8  2  0
 15 14  2  0
M  END
>  <Name>  (51) 
STOCK6S-65906

>  <id>  (51) 
STOCK6S-65906

>  <index>  (51) 
SCD

>  <donors>  (51) 
0

>  <acceptors>  (51) 
9

>  <rotatable>  (51) 
2

>  <clogp>  (51) 
-0.242

>  <rings>  (51) 
3

>  <tpsa>  (51) 
92.53

>  <iupac_name>  (51) 
1,3,9-trimethyl-8-((4-methyl-4H-1,2,4-triazol-3-yl)thio)-1H-purine-2,6(3H,9H)-dione

>  <Num_H_Acceptors_Lipinski>  (51) 
9

>  <Num_H_Donors_Lipinski>  (51) 
0

>  <Molecular_Weight>  (51) 
307.33162

>  <ALogP>  (51) 
0.394

>  <Num_RotatableBonds>  (51) 
2

>  <Molecular_PolarSurfaceArea>  (51) 
114.44

>  <Num_H_Acceptors>  (51) 
6

>  <Num_H_Donors>  (51) 
0

>  <ADMET_Solubility>  (51) 
-2.696

>  <ADMET_Solubility_Level>  (51) 
3

>  <ADMET_Unknown_AlogP98>  (51) 
0

>  <ADMET_BBB>  (51) 
-1.228

>  <ADMET_BBB_Level>  (51) 
3

>  <ADMET_EXT_CYP2D6>  (51) 
-9.95975648943557

>  <ADMET_EXT_CYP2D6#Prediction>  (51) 
false

>  <ADMET_EXT_CYP2D6_Applicability>  (51) 
All properties and OPS components are within expected ranges.
Unknown FCFP_2 feature: -1410079687: [*]S[c]1:n:[*]:[*]:n:1

>  <ADMET_EXT_CYP2D6_Applicability#MD>  (51) 
15.2296520889767

>  <ADMET_EXT_CYP2D6_Applicability#MDpvalue>  (51) 
1.12111619438834e-06

>  <ADMET_EXT_Hepatotoxic>  (51) 
-4.23375081705233

>  <ADMET_EXT_Hepatotoxic#Prediction>  (51) 
false

>  <ADMET_EXT_Hepatotoxic_Applicability>  (51) 
All properties and OPS components are within expected ranges.

>  <ADMET_EXT_Hepatotoxic_Applicability#MD>  (51) 
8.84876197084516

>  <ADMET_EXT_Hepatotoxic_Applicability#MDpvalue>  (51) 
0.533981497310958

>  <ADMET_Absorption_Level>  (51) 
0

>  <ADMET_EXT_PPB>  (51) 
-10.5257216455345

>  <ADMET_EXT_PPB#Prediction>  (51) 
false

>  <ADMET_EXT_PPB_Applicability>  (51) 
All properties and OPS components are within expected ranges.

>  <ADMET_EXT_PPB_Applicability#MD>  (51) 
13.5975439282227

>  <ADMET_EXT_PPB_Applicability#MDpvalue>  (51) 
0.00059297219429082

>  <ADMET_AlogP98>  (51) 
0.918

>  <ADMET_PSA_2D>  (51) 
85.786

$$$$
STOCK6S-67706
     RDKit          3D

 20 22  0  0  0  0  0  0  0  0999 V2000
    7.6666   -5.9633    0.0411 N   0  0  0  0  0  0  0  0  0  0  0  0
    6.6328   -6.7690    0.0155 N   0  0  0  0  0  0  0  0  0  0  0  0
    7.0588   -7.9116    0.0176 N   0  0  0  0  0  0  0  0  0  0  0  0
    8.4211   -7.9049    0.0453 N   0  0  0  0  0  0  0  0  0  0  0  0
    8.8131   -6.6987    0.0603 C   0  0  0  0  0  0  0  0  0  0  0  0
    5.0238   -1.7952   -0.0709 C   0  0  0  0  0  0  0  0  0  0  0  0
    7.6107   -4.5693    0.0323 C   0  0  0  0  0  0  0  0  0  0  0  0
    6.2882   -2.5344   -0.0243 C   0  0  0  0  0  0  0  0  0  0  0  0
    6.3127   -3.8691   -0.0064 C   0  0  0  0  0  0  0  0  0  0  0  0
    3.8469   -2.4141   -0.0681 N   0  0  0  0  0  0  0  0  0  0  0  0
    5.0535   -0.5599   -0.1147 O   0  0  0  0  0  0  0  0  0  0  0  0
    1.1376   -3.4961   -0.5752 O   0  0  0  0  0  0  0  0  0  0  0  0
    2.6603   -1.6011   -0.1323 C   0  0  0  0  0  0  0  0  0  0  0  0
    1.4087   -2.3900    0.2856 C   0  0  1  0  0  0  0  0  0  0  0  0
    8.7451   -3.8725    0.0514 C   0  0  0  0  0  0  0  0  0  0  0  0
    7.5427   -1.7795   -0.0030 C   0  0  0  0  0  0  0  0  0  0  0  0
    8.7105   -2.4148    0.0348 C   0  0  0  0  0  0  0  0  0  0  0  0
   -0.2464   -3.8706   -0.2715 C   0  0  0  0  0  0  0  0  0  0  0  0
    0.1470   -1.5635    0.1606 C   0  0  0  0  0  0  0  0  0  0  0  0
   -0.8298   -2.6625    0.5219 C   0  0  0  0  0  0  0  0  0  0  0  0
  2  1  1  0
  3  2  2  0
  4  5  2  0
  5  1  1  0
  6  8  1  0
  7  1  1  0
  8  9  2  0
  9  7  1  0
 10  6  1  0
 11  6  2  0
 12 14  1  0
 13 10  1  0
 14 13  1  6
 15  7  2  0
 16 17  2  0
 17 15  1  0
 18 12  1  0
 19 14  1  0
 20 19  1  0
  3  4  1  0
 16  8  1  0
 18 20  1  0
M  END
>  <Name>  (52) 
STOCK6S-67706

>  <id>  (52) 
STOCK6S-67706

>  <index>  (52) 
SCD

>  <donors>  (52) 
1

>  <acceptors>  (52) 
7

>  <rotatable>  (52) 
5

>  <clogp>  (52) 
1.128

>  <rings>  (52) 
3

>  <tpsa>  (52) 
81.93

>  <iupac_name>  (52) 
N-((tetrahydrofuran-2-yl)methyl)-3-(1H-tetrazol-1-yl)benzamide

>  <Num_H_Acceptors_Lipinski>  (52) 
7

>  <Num_H_Donors_Lipinski>  (52) 
1

>  <Molecular_Weight>  (52) 
273.2905

>  <ALogP>  (52) 
0.283

>  <Num_RotatableBonds>  (52) 
4

>  <Molecular_PolarSurfaceArea>  (52) 
81.93

>  <Num_H_Acceptors>  (52) 
5

>  <Num_H_Donors>  (52) 
1

>  <ADMET_Solubility>  (52) 
-2.036

>  <ADMET_Solubility_Level>  (52) 
3

>  <ADMET_Unknown_AlogP98>  (52) 
0

>  <ADMET_BBB>  (52) 
-1.196

>  <ADMET_BBB_Level>  (52) 
3

>  <ADMET_EXT_CYP2D6>  (52) 
-8.20159239958756

>  <ADMET_EXT_CYP2D6#Prediction>  (52) 
false

>  <ADMET_EXT_CYP2D6_Applicability>  (52) 
All properties and OPS components are within expected ranges.

>  <ADMET_EXT_CYP2D6_Applicability#MD>  (52) 
17.8568146895117

>  <ADMET_EXT_CYP2D6_Applicability#MDpvalue>  (52) 
1.04128093613065e-09

>  <ADMET_EXT_Hepatotoxic>  (52) 
-4.36637967602801

>  <ADMET_EXT_Hepatotoxic#Prediction>  (52) 
false

>  <ADMET_EXT_Hepatotoxic_Applicability>  (52) 
All properties and OPS components are within expected ranges.
Unknown FCFP_2 feature: 179977000: [*][c]1:[*]:[*]:n:n:1[c](:[*]):[*]
Unknown FCFP_2 feature: -1732563065: [*]:[cH]:[c](:[cH]:[*])n(:[*]):[*]

>  <ADMET_EXT_Hepatotoxic_Applicability#MD>  (52) 
15.2579656235518

>  <ADMET_EXT_Hepatotoxic_Applicability#MDpvalue>  (52) 
6.07309740162352e-12

>  <ADMET_Absorption_Level>  (52) 
0

>  <ADMET_EXT_PPB>  (52) 
-1.25751182592187

>  <ADMET_EXT_PPB#Prediction>  (52) 
true

>  <ADMET_EXT_PPB_Applicability>  (52) 
All properties and OPS components are within expected ranges.

>  <ADMET_EXT_PPB_Applicability#MD>  (52) 
13.9211277938079

>  <ADMET_EXT_PPB_Applicability#MDpvalue>  (52) 
0.000148704912033104

>  <ADMET_AlogP98>  (52) 
0.632

>  <ADMET_PSA_2D>  (52) 
78.172

$$$$
STOCK6S-70213
     RDKit          3D

 19 21  0  0  0  0  0  0  0  0999 V2000
    7.9403   -4.0492    0.0402 C   0  0  0  0  0  0  0  0  0  0  0  0
    6.5474   -4.4272    0.0255 C   0  0  0  0  0  0  0  0  0  0  0  0
    7.7878   -6.3036    0.2518 N   0  0  0  0  0  0  0  0  0  0  0  0
    8.6706   -5.1662    0.1892 C   0  0  0  0  0  0  0  0  0  0  0  0
    5.4643   -3.6710   -0.0720 C   0  0  0  0  0  0  0  0  0  0  0  0
    4.1526   -4.3723   -0.0385 C   0  0  0  0  0  0  0  0  0  0  0  0
    2.9046   -3.6194   -0.1247 C   0  0  0  0  0  0  0  0  0  0  0  0
    6.4969   -5.8076    0.1565 C   0  0  0  0  0  0  0  0  0  0  0  0
    8.4540   -2.5988   -0.0601 C   0  0  0  0  0  0  0  0  0  0  0  0
    9.9210   -2.4138    0.2249 N   0  0  0  0  0  0  0  0  0  0  0  0
    1.8226   -4.2155   -0.0845 O   0  0  0  0  0  0  0  0  0  0  0  0
    4.1078   -5.7082    0.0832 C   0  0  0  0  0  0  0  0  0  0  0  0
    5.3557   -6.4851    0.1882 C   0  0  0  0  0  0  0  0  0  0  0  0
   12.5488   -1.3790   -0.3061 O   0  0  0  0  0  0  0  0  0  0  0  0
    2.9319   -2.2341   -0.2335 O   0  0  0  0  0  0  0  0  0  0  0  0
   10.8058   -3.0023   -0.8163 C   0  0  0  0  0  0  0  0  0  0  0  0
   10.2128   -0.9699    0.2992 C   0  0  0  0  0  0  0  0  0  0  0  0
   11.6989   -0.7668    0.6790 C   0  0  0  0  0  0  0  0  0  0  0  0
   12.2786   -2.7870   -0.4008 C   0  0  0  0  0  0  0  0  0  0  0  0
  2  1  1  0
  3  4  1  0
  4  1  2  0
  5  2  1  0
  6  5  2  0
  7  6  1  0
  8  2  2  0
  9  1  1  0
 10  9  1  0
 11  7  2  0
 12 13  2  0
 13  8  1  0
 14 18  1  0
 15  7  1  0
 16 10  1  0
 17 10  1  0
 18 17  1  0
 19 16  1  0
  8  3  1  0
 19 14  1  0
  6 12  1  0
M  END
>  <Name>  (53) 
STOCK6S-70213

>  <id>  (53) 
STOCK6S-70213

>  <index>  (53) 
SCD

>  <donors>  (53) 
2

>  <acceptors>  (53) 
5

>  <rotatable>  (53) 
3

>  <clogp>  (53) 
-0.456

>  <rings>  (53) 
3

>  <tpsa>  (53) 
65.56

>  <iupac_name>  (53) 
3-(morpholinomethyl)-1H-indole-5-carboxylic acid

>  <Num_H_Acceptors_Lipinski>  (53) 
5

>  <Num_H_Donors_Lipinski>  (53) 
2

>  <Molecular_Weight>  (53) 
260.28844

>  <ALogP>  (53) 
-1.521

>  <Num_RotatableBonds>  (53) 
3

>  <Molecular_PolarSurfaceArea>  (53) 
65.56

>  <Num_H_Acceptors>  (53) 
4

>  <Num_H_Donors>  (53) 
2

>  <ADMET_Solubility>  (53) 
-2.807

>  <ADMET_Solubility_Level>  (53) 
3

>  <ADMET_Unknown_AlogP98>  (53) 
0

>  <ADMET_BBB>  (53) 
-0.722

>  <ADMET_BBB_Level>  (53) 
3

>  <ADMET_EXT_CYP2D6>  (53) 
-1.63945030157809

>  <ADMET_EXT_CYP2D6#Prediction>  (53) 
false

>  <ADMET_EXT_CYP2D6_Applicability>  (53) 
ALogP out of range. Value: -1.521. Training min, max, mean, SD: -0.811, 9.062, 3.2351, 1.51.
Unknown FCFP_2 feature: -1549222613: [*]:[c](:[*])C(=O)O

>  <ADMET_EXT_CYP2D6_Applicability#MD>  (53) 
15.023370558717

>  <ADMET_EXT_CYP2D6_Applicability#MDpvalue>  (53) 
1.92032409716453e-06

>  <ADMET_EXT_Hepatotoxic>  (53) 
-5.65207273989508

>  <ADMET_EXT_Hepatotoxic#Prediction>  (53) 
false

>  <ADMET_EXT_Hepatotoxic_Applicability>  (53) 
OPS PC11 out of range. Value: -4.2277. Training min, max, SD, explained variance: -4.0074, 4.0205, 1.463, 0.0267.
OPS PC15 out of range. Value: 3.9682. Training min, max, SD, explained variance: -4.0077, 3.8442, 1.218, 0.0185.

>  <ADMET_EXT_Hepatotoxic_Applicability#MD>  (53) 
13.6496881585334

>  <ADMET_EXT_Hepatotoxic_Applicability#MDpvalue>  (53) 
6.61545997611766e-08

>  <ADMET_Absorption_Level>  (53) 
0

>  <ADMET_EXT_PPB>  (53) 
-7.76127470967876

>  <ADMET_EXT_PPB#Prediction>  (53) 
false

>  <ADMET_EXT_PPB_Applicability>  (53) 
All properties and OPS components are within expected ranges.

>  <ADMET_EXT_PPB_Applicability#MD>  (53) 
13.1510608159933

>  <ADMET_EXT_PPB_Applicability#MDpvalue>  (53) 
0.00330320465695091

>  <ADMET_AlogP98>  (53) 
1.514

>  <ADMET_PSA_2D>  (53) 
65.454

$$$$
STOCK6S-71049
     RDKit          3D

 28 31  0  0  0  0  0  0  0  0999 V2000
    2.1525   -2.9036   -0.0001 N   0  0  0  0  0  0  0  0  0  0  0  0
    3.0629   -4.0174   -0.0005 C   0  0  0  0  0  0  0  0  0  0  0  0
    2.9673   -1.7467    0.0003 C   0  0  0  0  0  0  0  0  0  0  0  0
    4.4085   -3.4855   -0.0002 C   0  0  0  0  0  0  0  0  0  0  0  0
    4.3650   -2.1730    0.0002 C   0  0  0  0  0  0  0  0  0  0  0  0
    5.6461   -4.2173   -0.0004 C   0  0  0  0  0  0  0  0  0  0  0  0
   14.2299   -3.6750    0.0004 N   0  0  0  0  0  0  0  0  0  0  0  0
    8.0579   -4.2453   -0.0003 C   0  0  0  0  0  0  0  0  0  0  0  0
    6.7835   -3.5178   -0.0001 C   0  0  0  0  0  0  0  0  0  0  0  0
    0.6543   -2.8278   -0.0001 C   0  0  0  0  0  0  0  0  0  0  0  0
    5.5719   -1.3649    0.0005 C   0  0  0  0  0  0  0  0  0  0  0  0
   12.9493   -4.2298    0.0002 C   0  0  0  0  0  0  0  0  0  0  0  0
   14.3767   -5.8544   -0.0001 N   0  0  0  0  0  0  0  0  0  0  0  0
   15.0755   -4.6312    0.0003 C   0  0  0  0  0  0  0  0  0  0  0  0
    2.8040   -5.2207   -0.0009 O   0  0  0  0  0  0  0  0  0  0  0  0
    2.5654   -0.5774    0.0007 O   0  0  0  0  0  0  0  0  0  0  0  0
   13.0200   -5.5547   -0.0001 C   0  0  0  0  0  0  0  0  0  0  0  0
    6.7465   -2.0133    0.0004 C   0  0  0  0  0  0  0  0  0  0  0  0
    8.0471   -5.4813   -0.0007 O   0  0  0  0  0  0  0  0  0  0  0  0
    9.2224   -3.6014    0.0000 N   0  0  0  0  0  0  0  0  0  0  0  0
   11.6682   -3.4265    0.0003 C   0  0  0  0  0  0  0  0  0  0  0  0
   -0.2829   -4.0699   -0.0002 C   0  0  0  0  0  0  0  0  0  0  0  0
   10.4454   -4.3674   -0.0001 C   0  0  0  0  0  0  0  0  0  0  0  0
   -1.5980   -3.8443    0.0000 C   0  0  0  0  0  0  0  0  0  0  0  0
    0.1810   -5.4599   -0.0004 C   0  0  0  0  0  0  0  0  0  0  0  0
   -0.6801   -6.4751   -0.0004 C   0  0  0  0  0  0  0  0  0  0  0  0
   -2.5531   -4.9593   -0.0001 C   0  0  0  0  0  0  0  0  0  0  0  0
   -2.1134   -6.2148   -0.0003 C   0  0  0  0  0  0  0  0  0  0  0  0
  2  1  1  0
  3  1  1  0
  4  2  1  0
  5  3  1  0
  6  4  2  0
  7 12  1  0
  8  9  1  0
  9  6  1  0
 10  1  1  0
 11  5  2  0
 12 21  1  0
 13 17  1  0
 14  7  2  0
 15  2  2  0
 16  3  2  0
 17 12  2  0
 18 11  1  0
 19  8  2  0
 20  8  1  0
 21 23  1  0
 22 10  1  0
 23 20  1  0
 24 22  2  0
 25 22  1  0
 26 25  2  0
 27 24  1  0
 28 26  1  0
  4  5  1  0
  9 18  2  0
 27 28  2  0
 13 14  1  0
M  END
>  <Name>  (54) 
STOCK6S-71049

>  <id>  (54) 
STOCK6S-71049

>  <index>  (54) 
SC

>  <donors>  (54) 
2

>  <acceptors>  (54) 
7

>  <rotatable>  (54) 
7

>  <clogp>  (54) 
2.151

>  <rings>  (54) 
4

>  <tpsa>  (54) 
95.16

>  <iupac_name>  (54) 
N-(2-(1H-imidazol-4-yl)ethyl)-2-benzyl-1,3-dioxoisoindoline-5-carboxamide

>  <Num_H_Acceptors_Lipinski>  (54) 
7

>  <Num_H_Donors_Lipinski>  (54) 
2

>  <Molecular_Weight>  (54) 
374.39262

>  <ALogP>  (54) 
1.588

>  <Num_RotatableBonds>  (54) 
6

>  <Molecular_PolarSurfaceArea>  (54) 
95.16

>  <Num_H_Acceptors>  (54) 
4

>  <Num_H_Donors>  (54) 
2

>  <ADMET_Solubility>  (54) 
-3.515

>  <ADMET_Solubility_Level>  (54) 
3

>  <ADMET_Unknown_AlogP98>  (54) 
0

>  <ADMET_BBB>  (54) 
-0.995

>  <ADMET_BBB_Level>  (54) 
3

>  <ADMET_EXT_CYP2D6>  (54) 
-0.909371374312745

>  <ADMET_EXT_CYP2D6#Prediction>  (54) 
false

>  <ADMET_EXT_CYP2D6_Applicability>  (54) 
All properties and OPS components are within expected ranges.

>  <ADMET_EXT_CYP2D6_Applicability#MD>  (54) 
13.9912119582156

>  <ADMET_EXT_CYP2D6_Applicability#MDpvalue>  (54) 
2.69841415585869e-05

>  <ADMET_EXT_Hepatotoxic>  (54) 
-4.27500302462474

>  <ADMET_EXT_Hepatotoxic#Prediction>  (54) 
false

>  <ADMET_EXT_Hepatotoxic_Applicability>  (54) 
All properties and OPS components are within expected ranges.

>  <ADMET_EXT_Hepatotoxic_Applicability#MD>  (54) 
10.9620276488804

>  <ADMET_EXT_Hepatotoxic_Applicability#MDpvalue>  (54) 
0.00698850719106122

>  <ADMET_Absorption_Level>  (54) 
0

>  <ADMET_EXT_PPB>  (54) 
-8.05229915668296

>  <ADMET_EXT_PPB#Prediction>  (54) 
false

>  <ADMET_EXT_PPB_Applicability>  (54) 
All properties and OPS components are within expected ranges.

>  <ADMET_EXT_PPB_Applicability#MD>  (54) 
13.2211283802247

>  <ADMET_EXT_PPB_Applicability#MDpvalue>  (54) 
0.002560793557134

>  <ADMET_AlogP98>  (54) 
2.112

>  <ADMET_PSA_2D>  (54) 
94.381

$$$$
STOCK6S-72961
     RDKit          3D

 21 21  0  0  0  0  0  0  0  0999 V2000
    1.1614   -1.1636    0.0753 N   0  0  0  0  0  0  0  0  0  0  0  0
    0.0373   -0.2999    0.0651 C   0  0  0  0  0  0  0  0  0  0  0  0
    1.8782    0.9513   -0.2653 C   0  0  2  0  0  0  0  0  0  0  0  0
    2.4025   -0.4217    0.2126 C   0  0  0  0  0  0  0  0  0  0  0  0
    2.7698    2.1532   -0.1350 C   0  0  0  0  0  0  0  0  0  0  0  0
    0.4369    1.1248    0.2160 C   0  0  0  0  0  0  0  0  0  0  0  0
    1.0981   -2.5821    0.0320 C   0  0  0  0  0  0  0  0  0  0  0  0
   -1.1429   -0.6648    0.0071 O   0  0  0  0  0  0  0  0  0  0  0  0
    2.2632    3.2783   -0.0627 O   0  0  0  0  0  0  0  0  0  0  0  0
    4.0919    2.0287   -0.0982 N   0  0  0  0  0  0  0  0  0  0  0  0
   -0.0760   -3.2092   -0.0552 C   0  0  0  0  0  0  0  0  0  0  0  0
    2.3335   -3.3728    0.0901 C   0  0  0  0  0  0  0  0  0  0  0  0
    0.9752   -5.3882   -0.0384 C   0  0  0  0  0  0  0  0  0  0  0  0
    2.2774   -4.7049    0.0571 C   0  0  0  0  0  0  0  0  0  0  0  0
   -0.1415   -4.6677   -0.0925 C   0  0  0  0  0  0  0  0  0  0  0  0
    7.2868   -2.3693    0.0000 Cl  0  0  0  0  0  0  0  0  0  0  0  0
    7.1840    4.0907    0.0827 N   0  0  0  0  0  0  0  0  0  0  0  0
    0.8910   -6.7894   -0.0728 O   0  0  0  0  0  0  0  0  0  0  0  0
    4.8943    3.2150    0.0260 C   0  0  0  0  0  0  0  0  0  0  0  0
    6.3879    2.8593   -0.0408 C   0  0  0  0  0  0  0  0  0  0  0  0
    2.1903   -7.3895   -0.0029 C   0  0  0  0  0  0  0  0  0  0  0  0
  2  1  1  0
  3  4  1  0
  4  1  1  0
  3  5  1  1
  6  2  1  0
  7  1  1  0
  8  2  2  0
  9  5  2  0
 10  5  1  0
 11  7  2  0
 12  7  1  0
 13 14  1  0
 14 12  2  0
 15 11  1  0
 17 20  1  0
 18 13  1  0
 19 10  1  0
 20 19  1  0
 21 18  1  0
  3  6  1  0
 15 13  2  0
M  END
>  <Name>  (55) 
STOCK6S-72961

>  <id>  (55) 
STOCK6S-72961

>  <saltdata>  (55) 
HCl

>  <index>  (55) 
SC

>  <donors>  (55) 
2

>  <acceptors>  (55) 
6

>  <rotatable>  (55) 
6

>  <clogp>  (55) 
1.258

>  <rings>  (55) 
2

>  <tpsa>  (55) 
84.6600000000002

>  <iupac_name>  (55) 
N-(2-aminoethyl)-1-(4-methoxyphenyl)-5-oxopyrrolidine-3-carboxamide hydrochloride

>  <Num_H_Acceptors_Lipinski>  (55) 
6

>  <Num_H_Donors_Lipinski>  (55) 
3

>  <Molecular_Weight>  (55) 
313.7799

>  <ALogP>  (55) 
-0.154

>  <Num_RotatableBonds>  (55) 
5

>  <Molecular_PolarSurfaceArea>  (55) 
84.66

>  <Num_H_Acceptors>  (55) 
4

>  <Num_H_Donors>  (55) 
2

>  <ADMET_Solubility>  (55) 
-0.981

>  <ADMET_Solubility_Level>  (55) 
4

>  <ADMET_Unknown_AlogP98>  (55) 
0

>  <ADMET_BBB>  (55) 
-1.684

>  <ADMET_BBB_Level>  (55) 
3

>  <ADMET_EXT_CYP2D6>  (55) 
-8.27952777892556

>  <ADMET_EXT_CYP2D6#Prediction>  (55) 
false

>  <ADMET_EXT_CYP2D6_Applicability>  (55) 
All properties and OPS components are within expected ranges.

>  <ADMET_EXT_CYP2D6_Applicability#MD>  (55) 
22.8064884004246

>  <ADMET_EXT_CYP2D6_Applicability#MDpvalue>  (55) 
2.6178304645943e-15

>  <ADMET_EXT_Hepatotoxic>  (55) 
-4.26753406917011

>  <ADMET_EXT_Hepatotoxic#Prediction>  (55) 
false

>  <ADMET_EXT_Hepatotoxic_Applicability>  (55) 
All properties and OPS components are within expected ranges.

>  <ADMET_EXT_Hepatotoxic_Applicability#MD>  (55) 
12.0323976750791

>  <ADMET_EXT_Hepatotoxic_Applicability#MDpvalue>  (55) 
0.000141577824710335

>  <ADMET_Absorption_Level>  (55) 
0

>  <ADMET_EXT_PPB>  (55) 
-4.18624256468968

>  <ADMET_EXT_PPB#Prediction>  (55) 
false

>  <ADMET_EXT_PPB_Applicability>  (55) 
All properties and OPS components are within expected ranges.

>  <ADMET_EXT_PPB_Applicability#MD>  (55) 
14.0674581335852

>  <ADMET_EXT_PPB_Applicability#MDpvalue>  (55) 
7.66564689109145e-05

>  <ADMET_AlogP98>  (55) 
-0.536

>  <ADMET_PSA_2D>  (55) 
86.234

$$$$
STOCK6S-73195
     RDKit          3D

 26 29  0  0  0  0  0  0  0  0999 V2000
    2.9911   -2.7236    0.1124 N   0  0  0  0  0  0  0  0  0  0  0  0
    2.8437   -1.2887    0.0937 C   0  0  0  0  0  0  0  0  0  0  0  0
    1.6871   -3.2870    0.0716 C   0  0  0  0  0  0  0  0  0  0  0  0
    1.4246   -0.9943    0.0340 C   0  0  0  0  0  0  0  0  0  0  0  0
    0.7185   -2.2031    0.0217 C   0  0  0  0  0  0  0  0  0  0  0  0
    4.2233   -3.5375    0.1830 C   0  0  0  0  0  0  0  0  0  0  0  0
    5.5502   -2.8442   -0.1410 C   0  0  0  0  0  0  0  0  0  0  0  0
    6.7583   -3.5584   -0.0503 N   0  0  0  0  0  0  0  0  0  0  0  0
    9.2164   -4.9828    0.0306 N   0  0  0  0  0  0  0  0  0  0  0  0
   -0.5472   -2.2684   -0.0241 N   0  0  0  0  0  0  0  0  0  0  0  0
    3.7389   -0.4407    0.1327 O   0  0  0  0  0  0  0  0  0  0  0  0
    1.4193   -4.4939    0.0814 O   0  0  0  0  0  0  0  0  0  0  0  0
    7.9913   -2.8920   -0.3798 C   0  0  0  0  0  0  0  0  0  0  0  0
    6.7668   -4.9414    0.3617 C   0  0  0  0  0  0  0  0  0  0  0  0
    7.9867   -5.6852   -0.2558 C   0  0  0  0  0  0  0  0  0  0  0  0
    9.1940   -3.5737    0.3223 C   0  0  0  0  0  0  0  0  0  0  0  0
    5.5942   -1.6680   -0.5074 O   0  0  0  0  0  0  0  0  0  0  0  0
   10.4435   -5.6712    0.0149 C   0  0  0  0  0  0  0  0  0  0  0  0
    0.8161    0.1808   -0.0025 C   0  0  0  0  0  0  0  0  0  0  0  0
   -1.2862   -1.0483   -0.0666 C   0  0  0  0  0  0  0  0  0  0  0  0
   11.6937   -4.9499    0.2873 C   0  0  0  0  0  0  0  0  0  0  0  0
   10.4781   -6.9775   -0.2491 C   0  0  0  0  0  0  0  0  0  0  0  0
   -0.6557    0.1379   -0.0578 C   0  0  0  0  0  0  0  0  0  0  0  0
   12.8573   -5.5986    0.2706 C   0  0  0  0  0  0  0  0  0  0  0  0
   11.7594   -7.6906   -0.2661 C   0  0  0  0  0  0  0  0  0  0  0  0
   12.8917   -7.0339   -0.0190 C   0  0  0  0  0  0  0  0  0  0  0  0
  2  1  1  0
  3  1  1  0
  4  2  1  0
  5  3  1  0
  6  1  1  0
  7  6  1  0
  8  7  1  0
  9 15  1  0
 10  5  2  0
 11  2  2  0
 12  3  2  0
 13  8  1  0
 14  8  1  0
 15 14  1  0
 16 13  1  0
 17  7  2  0
 18  9  1  0
 19  4  2  0
 20 10  1  0
 21 18  2  0
 22 18  1  0
 23 19  1  0
 24 21  1  0
 25 22  2  0
 26 25  1  0
  4  5  1  0
 23 20  2  0
  9 16  1  0
 24 26  2  0
M  END
>  <Name>  (56) 
STOCK6S-73195

>  <id>  (56) 
STOCK6S-73195

>  <index>  (56) 
SCD

>  <donors>  (56) 
0

>  <acceptors>  (56) 
7

>  <rotatable>  (56) 
4

>  <clogp>  (56) 
1.857

>  <rings>  (56) 
4

>  <tpsa>  (56) 
73.82

>  <iupac_name>  (56) 
6-(2-oxo-2-(4-phenylpiperazin-1-yl)ethyl)-5H-pyrrolo[3,4-b]pyridine-5,7(6H)-dione

>  <Num_H_Acceptors_Lipinski>  (56) 
7

>  <Num_H_Donors_Lipinski>  (56) 
0

>  <Molecular_Weight>  (56) 
350.37122

>  <ALogP>  (56) 
1.035

>  <Num_RotatableBonds>  (56) 
3

>  <Molecular_PolarSurfaceArea>  (56) 
73.81

>  <Num_H_Acceptors>  (56) 
5

>  <Num_H_Donors>  (56) 
0

>  <ADMET_Solubility>  (56) 
-3.144

>  <ADMET_Solubility_Level>  (56) 
3

>  <ADMET_Unknown_AlogP98>  (56) 
0

>  <ADMET_BBB>  (56) 
-0.831

>  <ADMET_BBB_Level>  (56) 
3

>  <ADMET_EXT_CYP2D6>  (56) 
-13.7881062697412

>  <ADMET_EXT_CYP2D6#Prediction>  (56) 
false

>  <ADMET_EXT_CYP2D6_Applicability>  (56) 
All properties and OPS components are within expected ranges.

>  <ADMET_EXT_CYP2D6_Applicability#MD>  (56) 
15.8348252066724

>  <ADMET_EXT_CYP2D6_Applicability#MDpvalue>  (56) 
2.28132529254419e-07

>  <ADMET_EXT_Hepatotoxic>  (56) 
-5.22190434750548

>  <ADMET_EXT_Hepatotoxic#Prediction>  (56) 
false

>  <ADMET_EXT_Hepatotoxic_Applicability>  (56) 
All properties and OPS components are within expected ranges.

>  <ADMET_EXT_Hepatotoxic_Applicability#MD>  (56) 
12.1098293583322

>  <ADMET_EXT_Hepatotoxic_Applicability#MDpvalue>  (56) 
0.00010266879766854

>  <ADMET_Absorption_Level>  (56) 
0

>  <ADMET_EXT_PPB>  (56) 
4.07393634635593

>  <ADMET_EXT_PPB#Prediction>  (56) 
true

>  <ADMET_EXT_PPB_Applicability>  (56) 
OPS PC22 out of range. Value: -4.2703. Training min, max, SD, explained variance: -4.213, 4.3127, 1.256, 0.0130.

>  <ADMET_EXT_PPB_Applicability#MD>  (56) 
12.9186973582819

>  <ADMET_EXT_PPB_Applicability#MDpvalue>  (56) 
0.00737848255494509

>  <ADMET_AlogP98>  (56) 
1.559

>  <ADMET_PSA_2D>  (56) 
73.22

$$$$
STOCK6S-73440
     RDKit          3D

 34 37  0  0  0  0  0  0  0  0999 V2000
   -1.8537   -5.2340   -0.0222 C   0  0  0  0  0  0  0  0  0  0  0  0
   -0.6157   -6.0135   -0.0317 N   0  0  0  0  0  0  0  0  0  0  0  0
   -0.7888   -7.5202   -0.0393 C   0  0  0  0  0  0  0  0  0  0  0  0
   -3.1415   -5.9277   -0.0186 C   0  0  0  0  0  0  0  0  0  0  0  0
   -1.9474   -8.0576   -0.0346 N   0  0  0  0  0  0  0  0  0  0  0  0
   -3.1390   -7.3632   -0.0244 C   0  0  0  0  0  0  0  0  0  0  0  0
    4.5284   -3.1332    0.1010 C   0  0  0  0  0  0  0  0  0  0  0  0
    0.7434   -5.2859   -0.0215 C   0  0  0  0  0  0  0  0  0  0  0  0
   -1.8581   -3.9980   -0.0136 O   0  0  0  0  0  0  0  0  0  0  0  0
   -4.3007   -5.2591   -0.0092 C   0  0  0  0  0  0  0  0  0  0  0  0
    9.4423   -3.0275    0.2624 N   0  0  0  0  0  0  0  0  0  0  0  0
    3.2406   -3.8803    0.0355 C   0  0  0  0  0  0  0  0  0  0  0  0
   -4.2838   -8.0433   -0.0198 C   0  0  0  0  0  0  0  0  0  0  0  0
    4.5027   -1.9019    0.2052 O   0  0  0  0  0  0  0  0  0  0  0  0
   -9.2559   -5.5827    0.0042 C   0  0  0  0  0  0  0  0  0  0  0  0
    1.9241   -5.9216   -0.0605 C   0  0  0  0  0  0  0  0  0  0  0  0
    0.8031   -3.8047    0.0448 C   0  0  0  0  0  0  0  0  0  0  0  0
    1.9692   -3.1513    0.0720 C   0  0  0  0  0  0  0  0  0  0  0  0
    3.2173   -5.2069   -0.0305 C   0  0  0  0  0  0  0  0  0  0  0  0
    5.7138   -3.7587    0.0832 N   0  0  0  0  0  0  0  0  0  0  0  0
   11.9550   -1.7862   -0.3565 O   0  0  0  0  0  0  0  0  0  0  0  0
   -5.5840   -6.0089   -0.0051 C   0  0  0  0  0  0  0  0  0  0  0  0
  -10.3775   -6.3017    0.0051 C   0  0  0  0  0  0  0  0  0  0  0  0
   -6.8273   -5.3273    0.0029 O   0  0  0  0  0  0  0  0  0  0  0  0
    0.3426   -8.5283   -0.0460 C   0  0  0  0  0  0  0  0  0  0  0  0
   -7.9218   -6.2789    0.0044 C   0  0  0  0  0  0  0  0  0  0  0  0
   -5.5561   -7.3412   -0.0099 C   0  0  0  0  0  0  0  0  0  0  0  0
    6.9347   -2.9680    0.2193 C   0  0  0  0  0  0  0  0  0  0  0  0
    8.2118   -3.8058   -0.0809 C   0  0  0  0  0  0  0  0  0  0  0  0
    9.5101   -1.7598   -0.4913 C   0  0  0  0  0  0  0  0  0  0  0  0
   10.6486   -3.8292   -0.0293 C   0  0  0  0  0  0  0  0  0  0  0  0
   11.9091   -3.0242    0.3757 C   0  0  0  0  0  0  0  0  0  0  0  0
   10.7895   -0.9903   -0.0701 C   0  0  0  0  0  0  0  0  0  0  0  0
   -9.3282   -4.0849    0.0012 C   0  0  0  0  0  0  0  0  0  0  0  0
  2  1  1  0
  3  2  1  0
  4  1  1  0
  5  6  1  0
  6  4  2  0
  7 12  1  0
  8  2  1  0
  9  1  2  0
 10  4  1  0
 11 29  1  0
 12 18  1  0
 13  6  1  0
 14  7  2  0
 15 26  1  0
 16  8  2  0
 17  8  1  0
 18 17  2  0
 19 16  1  0
 20  7  1  0
 21 32  1  0
 22 10  2  0
 23 15  2  0
 24 22  1  0
 25  3  1  0
 26 24  1  0
 27 22  1  0
 28 20  1  0
 29 28  1  0
 30 11  1  0
 31 11  1  0
 32 31  1  0
 33 30  1  0
 34 15  1  0
  3  5  2  0
 13 27  2  0
 19 12  2  0
 21 33  1  0
M  END
>  <Name>  (57) 
STOCK6S-73440

>  <id>  (57) 
STOCK6S-73440

>  <index>  (57) 
SCD

>  <donors>  (57) 
1

>  <acceptors>  (57) 
8

>  <rotatable>  (57) 
9

>  <clogp>  (57) 
3.988

>  <rings>  (57) 
4

>  <tpsa>  (57) 
85.69

>  <iupac_name>  (57) 
4-(2-methyl-6-((2-methylallyl)oxy)-4-oxoquinazolin-3(4H)-yl)-N-(2-morpholinoethyl)benzamide

>  <Num_H_Acceptors_Lipinski>  (57) 
8

>  <Num_H_Donors_Lipinski>  (57) 
1

>  <Molecular_Weight>  (57) 
462.5408

>  <ALogP>  (57) 
2.693

>  <Num_RotatableBonds>  (57) 
8

>  <Molecular_PolarSurfaceArea>  (57) 
83.47

>  <Num_H_Acceptors>  (57) 
6

>  <Num_H_Donors>  (57) 
1

>  <ADMET_Solubility>  (57) 
-3.629

>  <ADMET_Solubility_Level>  (57) 
3

>  <ADMET_Unknown_AlogP98>  (57) 
0

>  <ADMET_BBB>  (57) 
-0.64

>  <ADMET_BBB_Level>  (57) 
3

>  <ADMET_EXT_CYP2D6>  (57) 
-5.46999184156635

>  <ADMET_EXT_CYP2D6#Prediction>  (57) 
false

>  <ADMET_EXT_CYP2D6_Applicability>  (57) 
All properties and OPS components are within expected ranges.

>  <ADMET_EXT_CYP2D6_Applicability#MD>  (57) 
15.3152869941999

>  <ADMET_EXT_CYP2D6_Applicability#MDpvalue>  (57) 
8.95974710528935e-07

>  <ADMET_EXT_Hepatotoxic>  (57) 
-9.65002485329394

>  <ADMET_EXT_Hepatotoxic#Prediction>  (57) 
false

>  <ADMET_EXT_Hepatotoxic_Applicability>  (57) 
All properties and OPS components are within expected ranges.

>  <ADMET_EXT_Hepatotoxic_Applicability#MD>  (57) 
14.9609338344512

>  <ADMET_EXT_Hepatotoxic_Applicability#MDpvalue>  (57) 
3.75345680480773e-11

>  <ADMET_Absorption_Level>  (57) 
0

>  <ADMET_EXT_PPB>  (57) 
-16.8663838336418

>  <ADMET_EXT_PPB#Prediction>  (57) 
false

>  <ADMET_EXT_PPB_Applicability>  (57) 
OPS PC25 out of range. Value: -3.1929. Training min, max, SD, explained variance: -2.9886, 4.7328, 1.181, 0.0115.

>  <ADMET_EXT_PPB_Applicability#MD>  (57) 
14.2289096716655

>  <ADMET_EXT_PPB_Applicability#MDpvalue>  (57) 
3.59436573750283e-05

>  <ADMET_AlogP98>  (57) 
2.693

>  <ADMET_PSA_2D>  (57) 
83.3

$$$$
STOCK6S-74296
     RDKit          3D

 26 28  0  0  0  0  0  0  0  0999 V2000
    9.4828   -3.9334    0.1018 N   0  0  0  0  0  0  0  0  0  0  0  0
    7.8280   -5.4629   -0.2268 C   0  0  1  0  0  0  0  0  0  0  0  0
   10.0836   -5.2024   -0.0094 C   0  0  0  0  0  0  0  0  0  0  0  0
    6.4634   -6.1638    0.0115 C   0  0  0  0  0  0  0  0  0  0  0  0
    8.0846   -4.0408    0.3600 C   0  0  0  0  0  0  0  0  0  0  0  0
    1.4172   -3.5722    0.1102 C   0  0  0  0  0  0  0  0  0  0  0  0
    5.1660   -5.5293   -0.1124 N   0  0  0  0  0  0  0  0  0  0  0  0
    2.6354   -4.2416   -0.0064 N   0  0  0  0  0  0  0  0  0  0  0  0
    9.0694   -6.2978    0.1511 C   0  0  0  0  0  0  0  0  0  0  0  0
    0.1388   -4.3102   -0.1085 C   0  0  0  0  0  0  0  0  0  0  0  0
   10.1525   -2.6916    0.0376 C   0  0  0  0  0  0  0  0  0  0  0  0
   11.2876   -5.4080   -0.1806 O   0  0  0  0  0  0  0  0  0  0  0  0
    4.9949   -4.1749   -0.5841 C   0  0  0  0  0  0  0  0  0  0  0  0
    3.9890   -6.2936    0.2503 C   0  0  0  0  0  0  0  0  0  0  0  0
    6.4888   -7.3419    0.3847 O   0  0  0  0  0  0  0  0  0  0  0  0
    2.6894   -5.6508   -0.3280 C   0  0  0  0  0  0  0  0  0  0  0  0
    3.8382   -3.4938    0.1651 C   0  0  0  0  0  0  0  0  0  0  0  0
    1.4436   -2.3649    0.3743 O   0  0  0  0  0  0  0  0  0  0  0  0
   -1.0917   -3.7713   -0.0743 C   0  0  0  0  0  0  0  0  0  0  0  0
   -1.3447   -2.3067    0.1935 C   0  0  0  0  0  0  0  0  0  0  0  0
   -2.2710   -4.6639   -0.3189 C   0  0  0  0  0  0  0  0  0  0  0  0
    9.4352   -1.5666    0.1425 C   0  0  0  0  0  0  0  0  0  0  0  0
   11.6046   -2.6054   -0.1396 C   0  0  0  0  0  0  0  0  0  0  0  0
   12.2052   -1.4187   -0.1942 C   0  0  0  0  0  0  0  0  0  0  0  0
   10.0954   -0.2626    0.0794 C   0  0  0  0  0  0  0  0  0  0  0  0
   11.4146   -0.1904   -0.0801 C   0  0  0  0  0  0  0  0  0  0  0  0
  2  5  1  0
  3  1  1  0
  2  4  1  1
  5  1  1  0
  6  8  1  0
  7  4  1  0
  8 16  1  0
  9  3  1  0
 10  6  1  0
 11  1  1  0
 12  3  2  0
 13  7  1  0
 14  7  1  0
 15  4  2  0
 16 14  1  0
 17 13  1  0
 18  6  2  0
 19 10  2  0
 20 19  1  0
 21 19  1  0
 22 11  2  0
 23 11  1  0
 24 23  2  0
 25 22  1  0
 26 24  1  0
  9  2  1  0
 25 26  2  0
  8 17  1  0
M  END
>  <Name>  (58) 
STOCK6S-74296

>  <id>  (58) 
STOCK6S-74296

>  <index>  (58) 
SC

>  <donors>  (58) 
0

>  <acceptors>  (58) 
6

>  <rotatable>  (58) 
5

>  <clogp>  (58) 
3.52

>  <rings>  (58) 
3

>  <tpsa>  (58) 
60.93

>  <iupac_name>  (58) 
4-(4-(3-methylbut-2-enoyl)piperazine-1-carbonyl)-1-phenylpyrrolidin-2-one

>  <Num_H_Acceptors_Lipinski>  (58) 
6

>  <Num_H_Donors_Lipinski>  (58) 
0

>  <Molecular_Weight>  (58) 
355.4308

>  <ALogP>  (58) 
1.278

>  <Num_RotatableBonds>  (58) 
3

>  <Molecular_PolarSurfaceArea>  (58) 
60.93

>  <Num_H_Acceptors>  (58) 
3

>  <Num_H_Donors>  (58) 
0

>  <ADMET_Solubility>  (58) 
-2.641

>  <ADMET_Solubility_Level>  (58) 
3

>  <ADMET_Unknown_AlogP98>  (58) 
0

>  <ADMET_BBB>  (58) 
-0.739

>  <ADMET_BBB_Level>  (58) 
3

>  <ADMET_EXT_CYP2D6>  (58) 
-6.65567185537719

>  <ADMET_EXT_CYP2D6#Prediction>  (58) 
false

>  <ADMET_EXT_CYP2D6_Applicability>  (58) 
All properties and OPS components are within expected ranges.

>  <ADMET_EXT_CYP2D6_Applicability#MD>  (58) 
13.6640018004861

>  <ADMET_EXT_CYP2D6_Applicability#MDpvalue>  (58) 
6.09648851052364e-05

>  <ADMET_EXT_Hepatotoxic>  (58) 
-4.59275919828906

>  <ADMET_EXT_Hepatotoxic#Prediction>  (58) 
false

>  <ADMET_EXT_Hepatotoxic_Applicability>  (58) 
All properties and OPS components are within expected ranges.

>  <ADMET_EXT_Hepatotoxic_Applicability#MD>  (58) 
11.4868333720927

>  <ADMET_EXT_Hepatotoxic_Applicability#MDpvalue>  (58) 
0.00117687497582095

>  <ADMET_Absorption_Level>  (58) 
0

>  <ADMET_EXT_PPB>  (58) 
0.0104002890328984

>  <ADMET_EXT_PPB#Prediction>  (58) 
true

>  <ADMET_EXT_PPB_Applicability>  (58) 
All properties and OPS components are within expected ranges.

>  <ADMET_EXT_PPB_Applicability#MD>  (58) 
13.4731758911442

>  <ADMET_EXT_PPB_Applicability#MDpvalue>  (58) 
0.000978590582847411

>  <ADMET_AlogP98>  (58) 
1.278

>  <ADMET_PSA_2D>  (58) 
61.959

$$$$
STOCK6S-78067
     RDKit          3D

 26 28  0  0  0  0  0  0  0  0999 V2000
    4.5184  -18.4966   -1.1226 S   0  0  0  0  0  0  0  0  0  0  0  0
    8.6197  -20.2455    0.5596 C   0  0  0  0  0  0  0  0  0  0  0  0
    6.0112  -18.9028   -0.2299 N   0  0  0  0  0  0  0  0  0  0  0  0
    3.1179  -17.6657   -0.2992 C   0  0  0  0  0  0  0  0  0  0  0  0
    8.9544  -21.7332    0.2450 N   0  0  0  0  0  0  0  0  0  0  0  0
    9.8501  -19.7783    1.2819 C   0  0  0  0  0  0  0  0  0  0  0  0
    8.4118  -19.2593   -0.6163 C   0  0  0  0  0  0  0  0  0  0  0  0
    7.3865  -19.9833    1.5340 C   0  0  0  0  0  0  0  0  0  0  0  0
    3.1524  -16.2384    0.1615 C   0  0  0  0  0  0  0  0  0  0  0  0
    4.0127  -19.7298   -1.8297 O   0  0  0  0  0  0  0  0  0  0  0  0
    4.9969  -17.4930   -2.1613 O   0  0  0  0  0  0  0  0  0  0  0  0
    1.9414  -18.3149   -0.2479 C   0  0  0  0  0  0  0  0  0  0  0  0
    7.0170  -19.3262   -1.2553 C   0  0  0  0  0  0  0  0  0  0  0  0
    5.9596  -19.9924    0.8166 C   0  0  0  0  0  0  0  0  0  0  0  0
    2.0475  -15.6440    0.5986 C   0  0  0  0  0  0  0  0  0  0  0  0
   10.1933  -18.5963    1.1867 O   0  0  0  0  0  0  0  0  0  0  0  0
   10.5890  -20.6574    2.0880 N   0  0  0  0  0  0  0  0  0  0  0  0
    0.7343  -17.6506    0.2643 C   0  0  0  0  0  0  0  0  0  0  0  0
    0.7751  -16.3777    0.6541 C   0  0  0  0  0  0  0  0  0  0  0  0
    7.9533  -22.6694   -0.3060 C   0  0  0  0  0  0  0  0  0  0  0  0
   10.1837  -21.7573   -0.6359 C   0  0  0  0  0  0  0  0  0  0  0  0
    4.4332  -15.4488    0.1107 C   0  0  0  0  0  0  0  0  0  0  0  0
   -0.4778  -15.6961    1.1385 C   0  0  0  0  0  0  0  0  0  0  0  0
   10.8523  -23.1456   -0.6108 C   0  0  0  0  0  0  0  0  0  0  0  0
    8.5737  -24.1129   -0.2415 C   0  0  0  0  0  0  0  0  0  0  0  0
    9.8534  -24.1867   -1.1055 C   0  0  0  0  0  0  0  0  0  0  0  0
  2  8  1  0
  3  1  1  0
  4  1  1  0
  5  2  1  0
  6  2  1  0
  7 13  1  0
  8 14  1  0
  9  4  2  0
 10  1  2  0
 11  1  2  0
 12  4  1  0
 13  3  1  0
 14  3  1  0
 15  9  1  0
 16  6  2  0
 17  6  1  0
 18 12  2  0
 19 18  1  0
 20  5  1  0
 21  5  1  0
 22  9  1  0
 23 19  1  0
 24 21  1  0
 25 20  1  0
 26 24  1  0
  7  2  1  0
 19 15  2  0
 26 25  1  0
M  END
>  <Name>  (59) 
STOCK6S-78067

>  <id>  (59) 
STOCK6S-78067

>  <index>  (59) 
SCD

>  <donors>  (59) 
1

>  <acceptors>  (59) 
6

>  <rotatable>  (59) 
4

>  <clogp>  (59) 
2.4

>  <rings>  (59) 
3

>  <tpsa>  (59) 
83.71

>  <iupac_name>  (59) 
1'-((2,4-dimethylphenyl)sulfonyl)-[1,4'-bipiperidine]-4'-carboxamide

>  <Num_H_Acceptors_Lipinski>  (59) 
6

>  <Num_H_Donors_Lipinski>  (59) 
2

>  <Molecular_Weight>  (59) 
379.51686

>  <ALogP>  (59) 
1.87

>  <Num_RotatableBonds>  (59) 
4

>  <Molecular_PolarSurfaceArea>  (59) 
92.08

>  <Num_H_Acceptors>  (59) 
4

>  <Num_H_Donors>  (59) 
1

>  <ADMET_Solubility>  (59) 
-3.899

>  <ADMET_Solubility_Level>  (59) 
3

>  <ADMET_Unknown_AlogP98>  (59) 
0

>  <ADMET_BBB>  (59) 
-0.923

>  <ADMET_BBB_Level>  (59) 
3

>  <ADMET_EXT_CYP2D6>  (59) 
-9.5231053891917

>  <ADMET_EXT_CYP2D6#Prediction>  (59) 
false

>  <ADMET_EXT_CYP2D6_Applicability>  (59) 
All properties and OPS components are within expected ranges.
Unknown FCFP_2 feature: -1136473982: [*]CC(C)(C)N([*])[*]

>  <ADMET_EXT_CYP2D6_Applicability#MD>  (59) 
13.369908096343

>  <ADMET_EXT_CYP2D6_Applicability#MDpvalue>  (59) 
0.000125320253291579

>  <ADMET_EXT_Hepatotoxic>  (59) 
-5.26427327096809

>  <ADMET_EXT_Hepatotoxic#Prediction>  (59) 
false

>  <ADMET_EXT_Hepatotoxic_Applicability>  (59) 
All properties and OPS components are within expected ranges.
Unknown FCFP_2 feature: -1136473982: [*]CC(C)(C)N([*])[*]

>  <ADMET_EXT_Hepatotoxic_Applicability#MD>  (59) 
8.86783488978716

>  <ADMET_EXT_Hepatotoxic_Applicability#MDpvalue>  (59) 
0.524241910387242

>  <ADMET_Absorption_Level>  (59) 
0

>  <ADMET_EXT_PPB>  (59) 
2.24357811715449

>  <ADMET_EXT_PPB#Prediction>  (59) 
true

>  <ADMET_EXT_PPB_Applicability>  (59) 
All properties and OPS components are within expected ranges.

>  <ADMET_EXT_PPB_Applicability#MD>  (59) 
11.6149596029292

>  <ADMET_EXT_PPB_Applicability#MDpvalue>  (59) 
0.204173863320849

>  <ADMET_AlogP98>  (59) 
1.87

>  <ADMET_PSA_2D>  (59) 
85.147

$$$$
STOCK6S-78848
     RDKit          3D

 26 27  0  0  0  0  0  0  0  0999 V2000
    1.6667   -1.2512    0.0168 C   0  0  0  0  0  0  0  0  0  0  0  0
    4.1354   -1.2171    0.0017 C   0  0  0  0  0  0  0  0  0  0  0  0
    2.9562   -1.8684    0.0136 N   0  0  0  0  0  0  0  0  0  0  0  0
    0.5155   -1.9591    0.0393 C   0  0  0  0  0  0  0  0  0  0  0  0
    5.3610   -1.9889   -0.0005 C   0  0  0  0  0  0  0  0  0  0  0  0
    0.4252   -3.4140    0.0655 N   0  0  0  0  0  0  0  0  0  0  0  0
    0.3546    2.4152   -0.0204 C   0  0  0  0  0  0  0  0  0  0  0  0
    0.4503    0.8816   -0.0038 C   0  0  0  0  0  0  0  0  0  0  0  0
    1.5918    0.2038   -0.0029 C   0  0  0  0  0  0  0  0  0  0  0  0
   -0.7602   -1.2143    0.0345 C   0  0  0  0  0  0  0  0  0  0  0  0
    6.6029   -1.4497   -0.0073 O   0  0  0  0  0  0  0  0  0  0  0  0
    4.2232    0.0151   -0.0054 O   0  0  0  0  0  0  0  0  0  0  0  0
    5.4201   -3.3120    0.0043 C   0  0  0  0  0  0  0  0  0  0  0  0
   -0.7898    0.1179    0.0148 C   0  0  0  0  0  0  0  0  0  0  0  0
   -0.7898    2.8811   -0.0262 O   0  0  0  0  0  0  0  0  0  0  0  0
    7.5065   -2.4798   -0.0066 C   0  0  0  0  0  0  0  0  0  0  0  0
    6.8362   -3.6345    0.0002 C   0  0  0  0  0  0  0  0  0  0  0  0
    0.1245   -6.2113    0.2505 O   0  0  0  0  0  0  0  0  0  0  0  0
    1.4488    3.4079   -0.0259 O   0  0  0  0  0  0  0  0  0  0  0  0
   -4.2333   -1.4522   -0.0025 Cl  0  0  0  0  0  0  0  0  0  0  0  0
    1.5952   -4.2808    0.2017 C   0  0  0  0  0  0  0  0  0  0  0  0
   -0.9052   -4.0011    0.1302 C   0  0  0  0  0  0  0  0  0  0  0  0
   -0.9301   -5.4684   -0.3521 C   0  0  0  0  0  0  0  0  0  0  0  0
    1.3400   -5.7148   -0.2927 C   0  0  0  0  0  0  0  0  0  0  0  0
    2.8338    2.9865   -0.0145 C   0  0  0  0  0  0  0  0  0  0  0  0
    3.7672    4.2078   -0.0139 C   0  0  0  0  0  0  0  0  0  0  0  0
  2  3  1  0
  3  1  1  0
  4  1  2  0
  5  2  1  0
  6  4  1  0
  7  8  1  0
  8  9  2  0
  9  1  1  0
 10  4  1  0
 11  5  1  0
 12  2  2  0
 13  5  2  0
 14  8  1  0
 15  7  2  0
 16 11  1  0
 17 13  1  0
 18 24  1  0
 19  7  1  0
 21  6  1  0
 22  6  1  0
 23 22  1  0
 24 21  1  0
 25 19  1  0
 26 25  1  0
 14 10  2  0
 18 23  1  0
 17 16  2  0
M  END
>  <Name>  (60) 
STOCK6S-78848

>  <id>  (60) 
STOCK6S-78848

>  <saltdata>  (60) 
HCl

>  <index>  (60) 
SCD

>  <donors>  (60) 
1

>  <acceptors>  (60) 
7

>  <rotatable>  (60) 
7

>  <clogp>  (60) 
2.343

>  <rings>  (60) 
3

>  <tpsa>  (60) 
81.01

>  <iupac_name>  (60) 
ethyl 3-(furan-2-carboxamido)-4-morpholinobenzoate hydrochloride

>  <Num_H_Acceptors_Lipinski>  (60) 
7

>  <Num_H_Donors_Lipinski>  (60) 
1

>  <Molecular_Weight>  (60) 
380.82274

>  <ALogP>  (60) 
2.446

>  <Num_RotatableBonds>  (60) 
6

>  <Molecular_PolarSurfaceArea>  (60) 
81.01

>  <Num_H_Acceptors>  (60) 
5

>  <Num_H_Donors>  (60) 
1

>  <ADMET_Solubility>  (60) 
-3.332

>  <ADMET_Solubility_Level>  (60) 
3

>  <ADMET_Unknown_AlogP98>  (60) 
0

>  <ADMET_BBB>  (60) 
-0.801

>  <ADMET_BBB_Level>  (60) 
3

>  <ADMET_EXT_CYP2D6>  (60) 
-10.7025016621257

>  <ADMET_EXT_CYP2D6#Prediction>  (60) 
false

>  <ADMET_EXT_CYP2D6_Applicability>  (60) 
All properties and OPS components are within expected ranges.

>  <ADMET_EXT_CYP2D6_Applicability#MD>  (60) 
22.721786419862

>  <ADMET_EXT_CYP2D6_Applicability#MDpvalue>  (60) 
3.23790190586084e-15

>  <ADMET_EXT_Hepatotoxic>  (60) 
-7.85240307463398

>  <ADMET_EXT_Hepatotoxic#Prediction>  (60) 
false

>  <ADMET_EXT_Hepatotoxic_Applicability>  (60) 
All properties and OPS components are within expected ranges.

>  <ADMET_EXT_Hepatotoxic_Applicability#MD>  (60) 
12.2757513530964

>  <ADMET_EXT_Hepatotoxic_Applicability#MDpvalue>  (60) 
5.07160647144914e-05

>  <ADMET_Absorption_Level>  (60) 
0

>  <ADMET_EXT_PPB>  (60) 
-7.22751448219332

>  <ADMET_EXT_PPB#Prediction>  (60) 
false

>  <ADMET_EXT_PPB_Applicability>  (60) 
All properties and OPS components are within expected ranges.

>  <ADMET_EXT_PPB_Applicability#MD>  (60) 
16.5887820354871

>  <ADMET_EXT_PPB_Applicability#MDpvalue>  (60) 
3.19710988475175e-11

>  <ADMET_AlogP98>  (60) 
2.064

>  <ADMET_PSA_2D>  (60) 
81.178

$$$$
STOCK6S-79458
     RDKit          3D

 28 31  0  0  0  0  0  0  0  0999 V2000
    5.1545    3.4215   -0.0461 N   0  0  0  0  0  0  0  0  0  0  0  0
    5.1423    2.0696   -0.0485 N   0  0  0  0  0  0  0  0  0  0  0  0
    6.2490    4.1491    0.0008 C   0  0  0  0  0  0  0  0  0  0  0  0
    4.1164    4.2837   -0.0656 C   0  0  0  0  0  0  0  0  0  0  0  0
    5.9513    5.3904    0.0123 N   0  0  0  0  0  0  0  0  0  0  0  0
    4.5744    5.4768   -0.0289 N   0  0  0  0  0  0  0  0  0  0  0  0
    6.2656    1.4505   -0.0134 C   0  0  0  0  0  0  0  0  0  0  0  0
    7.5358    3.5552    0.0347 C   0  0  0  0  0  0  0  0  0  0  0  0
    7.5512    2.2238    0.0274 C   0  0  0  0  0  0  0  0  0  0  0  0
   -0.5537    3.6235    0.1627 N   0  0  0  0  0  0  0  0  0  0  0  0
    0.1962    4.8885    0.0390 C   0  0  0  0  0  0  0  0  0  0  0  0
    6.3483    0.0337   -0.0076 N   0  0  0  0  0  0  0  0  0  0  0  0
    2.6920    3.8952   -0.1151 C   0  0  0  0  0  0  0  0  0  0  0  0
    5.0852   -0.8013   -0.0253 C   0  0  0  0  0  0  0  0  0  0  0  0
    1.7555    5.1160    0.0499 C   0  0  0  0  0  0  0  0  0  0  0  0
   -0.4910    5.9042   -0.1201 O   0  0  0  0  0  0  0  0  0  0  0  0
   -2.1477    1.2894    0.2117 O   0  0  0  0  0  0  0  0  0  0  0  0
    5.0933   -2.3946   -0.0141 C   0  0  0  0  0  0  0  0  0  0  0  0
   -1.9981    3.7286    0.1048 C   0  0  0  0  0  0  0  0  0  0  0  0
    0.0354    2.3057    0.4356 C   0  0  0  0  0  0  0  0  0  0  0  0
    7.6842   -0.5051    0.0309 C   0  0  0  0  0  0  0  0  0  0  0  0
   -0.7853    1.1537   -0.1603 C   0  0  0  0  0  0  0  0  0  0  0  0
   -2.6552    2.4446   -0.4502 C   0  0  0  0  0  0  0  0  0  0  0  0
    6.3143   -3.2469   -0.0119 C   0  0  0  0  0  0  0  0  0  0  0  0
    3.9112   -3.0160   -0.0077 C   0  0  0  0  0  0  0  0  0  0  0  0
    3.8281   -4.4885    0.0021 C   0  0  0  0  0  0  0  0  0  0  0  0
    6.2356   -4.5757   -0.0030 C   0  0  0  0  0  0  0  0  0  0  0  0
    4.9353   -5.2273    0.0044 C   0  0  0  0  0  0  0  0  0  0  0  0
  2  1  1  0
  3  1  1  0
  4  1  1  0
  5  3  2  0
  6  4  2  0
  7  2  2  0
  8  3  1  0
  9  8  2  0
 10 11  1  0
 11 15  1  0
 12  7  1  0
 13  4  1  0
 14 12  1  0
 15 13  1  0
 16 11  2  0
 17 22  1  0
 18 14  1  0
 19 10  1  0
 20 10  1  0
 21 12  1  0
 22 20  1  0
 23 19  1  0
 24 18  2  0
 25 18  1  0
 26 25  2  0
 27 24  1  0
 28 26  1  0
  5  6  1  0
  7  9  1  0
 23 17  1  0
 28 27  2  0
M  END
>  <Name>  (61) 
STOCK6S-79458

>  <id>  (61) 
STOCK6S-79458

>  <index>  (61) 
SCD

>  <donors>  (61) 
0

>  <acceptors>  (61) 
8

>  <rotatable>  (61) 
7

>  <clogp>  (61) 
0.72

>  <rings>  (61) 
4

>  <tpsa>  (61) 
75.86

>  <iupac_name>  (61) 
3-(6-(benzyl(methyl)amino)-[1,2,4]triazolo[4,3-b]pyridazin-3-yl)-1-morpholinopropan-1-one

>  <Num_H_Acceptors_Lipinski>  (61) 
8

>  <Num_H_Donors_Lipinski>  (61) 
0

>  <Molecular_Weight>  (61) 
380.44356

>  <ALogP>  (61) 
1.715

>  <Num_RotatableBonds>  (61) 
6

>  <Molecular_PolarSurfaceArea>  (61) 
75.86

>  <Num_H_Acceptors>  (61) 
6

>  <Num_H_Donors>  (61) 
0

>  <ADMET_Solubility>  (61) 
-3.2

>  <ADMET_Solubility_Level>  (61) 
3

>  <ADMET_Unknown_AlogP98>  (61) 
0

>  <ADMET_BBB>  (61) 
-0.683

>  <ADMET_BBB_Level>  (61) 
3

>  <ADMET_EXT_CYP2D6>  (61) 
-5.1682508187467

>  <ADMET_EXT_CYP2D6#Prediction>  (61) 
false

>  <ADMET_EXT_CYP2D6_Applicability>  (61) 
All properties and OPS components are within expected ranges.
Unknown FCFP_2 feature: -332197802: [*][c](:[*]):n1:n:[*]:[*]:[c]:1:[*]
Unknown FCFP_2 feature: -1564473960: [*][c](:[*]):[c]1:n:[*]:[*]:n:1:[*]

>  <ADMET_EXT_CYP2D6_Applicability#MD>  (61) 
14.3076667307125

>  <ADMET_EXT_CYP2D6_Applicability#MDpvalue>  (61) 
1.21263966107414e-05

>  <ADMET_EXT_Hepatotoxic>  (61) 
-5.24668098586236

>  <ADMET_EXT_Hepatotoxic#Prediction>  (61) 
false

>  <ADMET_EXT_Hepatotoxic_Applicability>  (61) 
All properties and OPS components are within expected ranges.
Unknown FCFP_2 feature: -332197802: [*][c](:[*]):n1:n:[*]:[*]:[c]:1:[*]

>  <ADMET_EXT_Hepatotoxic_Applicability#MD>  (61) 
15.5034280187572

>  <ADMET_EXT_Hepatotoxic_Applicability#MDpvalue>  (61) 
1.30602519270125e-12

>  <ADMET_Absorption_Level>  (61) 
0

>  <ADMET_EXT_PPB>  (61) 
0.485027128934633

>  <ADMET_EXT_PPB#Prediction>  (61) 
true

>  <ADMET_EXT_PPB_Applicability>  (61) 
All properties and OPS components are within expected ranges.

>  <ADMET_EXT_PPB_Applicability#MD>  (61) 
14.4510736005215

>  <ADMET_EXT_PPB_Applicability#MDpvalue>  (61) 
1.21278685261575e-05

>  <ADMET_AlogP98>  (61) 
1.977

>  <ADMET_PSA_2D>  (61) 
72.067

$$$$
STOCK6S-80677
     RDKit          3D

 17 18  0  0  0  0  0  0  0  0999 V2000
    1.8132   -2.6448    0.0001 N   0  0  0  0  0  0  0  0  0  0  0  0
    0.7002   -1.8135    0.0001 C   0  0  0  0  0  0  0  0  0  0  0  0
    1.1585   -0.5800    0.0002 C   0  0  0  0  0  0  0  0  0  0  0  0
    2.9412   -1.8864    0.0003 N   0  0  0  0  0  0  0  0  0  0  0  0
    2.6141   -0.6444    0.0003 C   0  0  0  0  0  0  0  0  0  0  0  0
    0.3544    0.6390    0.0002 C   0  0  0  0  0  0  0  0  0  0  0  0
    1.8169   -4.0530    0.0001 C   0  0  0  0  0  0  0  0  0  0  0  0
    3.0528   -4.7301    0.0001 N   0  0  0  0  0  0  0  0  0  0  0  0
   -0.6488   -2.1869    0.0000 N   0  0  0  0  0  0  0  0  0  0  0  0
    0.9108    1.7430    0.0004 O   0  0  0  0  0  0  0  0  0  0  0  0
   -1.0349    0.5567    0.0001 O   0  0  0  0  0  0  0  0  0  0  0  0
    0.6770   -4.7439    0.0000 C   0  0  0  0  0  0  0  0  0  0  0  0
    3.1166   -6.0028    0.0000 C   0  0  0  0  0  0  0  0  0  0  0  0
   -1.5954    1.8714    0.0001 C   0  0  0  0  0  0  0  0  0  0  0  0
   -3.1309    1.7731   -0.0002 C   0  0  0  0  0  0  0  0  0  0  0  0
    0.7166   -6.1984    0.0000 C   0  0  0  0  0  0  0  0  0  0  0  0
    1.8963   -6.8089    0.0000 C   0  0  0  0  0  0  0  0  0  0  0  0
  2  1  1  0
  3  2  2  0
  4  1  1  0
  5  4  2  0
  6  3  1  0
  7  1  1  0
  8  7  2  0
  9  2  1  0
 10  6  2  0
 11  6  1  0
 12  7  1  0
 13  8  1  0
 14 11  1  0
 15 14  1  0
 16 12  2  0
 17 16  1  0
  5  3  1  0
 17 13  2  0
M  END
>  <Name>  (62) 
STOCK6S-80677

>  <id>  (62) 
STOCK6S-80677

>  <index>  (62) 
SCD

>  <donors>  (62) 
1

>  <acceptors>  (62) 
6

>  <rotatable>  (62) 
4

>  <clogp>  (62) 
1.674

>  <rings>  (62) 
2

>  <tpsa>  (62) 
83.03

>  <iupac_name>  (62) 
ethyl 5-amino-1-(pyridin-2-yl)-1H-pyrazole-4-carboxylate

>  <Num_H_Acceptors_Lipinski>  (62) 
6

>  <Num_H_Donors_Lipinski>  (62) 
2

>  <Molecular_Weight>  (62) 
232.23858

>  <ALogP>  (62) 
1.027

>  <Num_RotatableBonds>  (62) 
4

>  <Molecular_PolarSurfaceArea>  (62) 
83.03

>  <Num_H_Acceptors>  (62) 
5

>  <Num_H_Donors>  (62) 
1

>  <ADMET_Solubility>  (62) 
-2.282

>  <ADMET_Solubility_Level>  (62) 
3

>  <ADMET_Unknown_AlogP98>  (62) 
0

>  <ADMET_BBB>  (62) 
-1.113

>  <ADMET_BBB_Level>  (62) 
3

>  <ADMET_EXT_CYP2D6>  (62) 
-7.82516841179433

>  <ADMET_EXT_CYP2D6#Prediction>  (62) 
false

>  <ADMET_EXT_CYP2D6_Applicability>  (62) 
All properties and OPS components are within expected ranges.
Unknown FCFP_2 feature: 819593896: [*]:[cH]:[c](:n:[*])n(:[*]):[*]

>  <ADMET_EXT_CYP2D6_Applicability#MD>  (62) 
13.3009254959338

>  <ADMET_EXT_CYP2D6_Applicability#MDpvalue>  (62) 
0.000148128103731696

>  <ADMET_EXT_Hepatotoxic>  (62) 
-5.3189000094309

>  <ADMET_EXT_Hepatotoxic#Prediction>  (62) 
false

>  <ADMET_EXT_Hepatotoxic_Applicability>  (62) 
All properties and OPS components are within expected ranges.
Unknown FCFP_2 feature: 179977000: [*][c]1:[*]:[*]:n:n:1[c](:[*]):[*]
Unknown FCFP_2 feature: 819593896: [*]:[cH]:[c](:n:[*])n(:[*]):[*]

>  <ADMET_EXT_Hepatotoxic_Applicability#MD>  (62) 
12.1838758626484

>  <ADMET_EXT_Hepatotoxic_Applicability#MDpvalue>  (62) 
7.515532044459e-05

>  <ADMET_Absorption_Level>  (62) 
0

>  <ADMET_EXT_PPB>  (62) 
-4.06516533119443

>  <ADMET_EXT_PPB#Prediction>  (62) 
false

>  <ADMET_EXT_PPB_Applicability>  (62) 
All properties and OPS components are within expected ranges.

>  <ADMET_EXT_PPB_Applicability#MD>  (62) 
14.2126129014096

>  <ADMET_EXT_PPB_Applicability#MDpvalue>  (62) 
3.88473800385751e-05

>  <ADMET_AlogP98>  (62) 
1.027

>  <ADMET_PSA_2D>  (62) 
80.641

$$$$
STOCK6S-80861
     RDKit          3D

 25 27  0  0  0  0  0  0  0  0999 V2000
   11.2544   -5.3297   -0.0130 N   0  0  0  0  0  0  0  0  0  0  0  0
   10.2228   -6.1425   -0.0893 C   0  0  0  0  0  0  0  0  0  0  0  0
   11.1390   -3.9860    0.0186 N   0  0  0  0  0  0  0  0  0  0  0  0
   12.3694   -6.1146    0.0300 C   0  0  0  0  0  0  0  0  0  0  0  0
   10.6210   -7.3594   -0.0817 N   0  0  0  0  0  0  0  0  0  0  0  0
   11.9890   -7.3384   -0.0064 N   0  0  0  0  0  0  0  0  0  0  0  0
    9.9714   -3.4525   -0.0550 C   0  0  0  0  0  0  0  0  0  0  0  0
    8.8987   -5.6742   -0.1793 C   0  0  0  0  0  0  0  0  0  0  0  0
    8.7644   -4.3500   -0.1728 C   0  0  0  0  0  0  0  0  0  0  0  0
    9.8757   -1.9928   -0.0125 N   0  0  0  0  0  0  0  0  0  0  0  0
   16.1111   -6.6834    0.0420 C   0  0  0  0  0  0  0  0  0  0  0  0
   13.7982   -5.6866    0.0894 C   0  0  0  0  0  0  0  0  0  0  0  0
   16.9244   -7.6147    0.0173 O   0  0  0  0  0  0  0  0  0  0  0  0
   14.6433   -6.9813    0.0478 C   0  0  0  0  0  0  0  0  0  0  0  0
   16.5593   -5.3690    0.0466 O   0  0  0  0  0  0  0  0  0  0  0  0
    6.1528   -0.6924   -0.2486 C   0  0  0  0  0  0  0  0  0  0  0  0
    4.8225   -1.3930   -0.0811 C   0  0  0  0  0  0  0  0  0  0  0  0
    7.2881   -1.6594    0.1448 C   0  0  0  0  0  0  0  0  0  0  0  0
    8.6853   -1.1100   -0.2643 C   0  0  1  0  0  0  0  0  0  0  0  0
    4.7823   -2.7001    0.1838 C   0  0  0  0  0  0  0  0  0  0  0  0
    3.5722   -0.6430   -0.2322 C   0  0  0  0  0  0  0  0  0  0  0  0
    8.9247    0.2619    0.3975 C   0  0  0  0  0  0  0  0  0  0  0  0
    2.4009   -1.2659   -0.1018 C   0  0  0  0  0  0  0  0  0  0  0  0
    3.4954   -3.3847    0.3273 C   0  0  0  0  0  0  0  0  0  0  0  0
    2.3603   -2.7019    0.1907 C   0  0  0  0  0  0  0  0  0  0  0  0
  2  1  1  0
  3  1  1  0
  4  1  1  0
  5  2  2  0
  6  4  2  0
  7  3  2  0
  8  2  1  0
  9  7  1  0
 10  7  1  0
 11 14  1  0
 12  4  1  0
 13 11  2  0
 14 12  1  0
 15 11  1  0
 16 18  1  0
 17 16  1  0
 18 19  1  0
 19 10  1  0
 20 17  2  0
 21 17  1  0
 19 22  1  1
 23 21  2  0
 24 20  1  0
 25 23  1  0
  6  5  1  0
  8  9  2  0
 25 24  2  0
M  END
>  <Name>  (63) 
STOCK6S-80861

>  <id>  (63) 
STOCK6S-80861

>  <index>  (63) 
SC

>  <donors>  (63) 
2

>  <acceptors>  (63) 
7

>  <rotatable>  (63) 
8

>  <clogp>  (63) 
2.178

>  <rings>  (63) 
3

>  <tpsa>  (63) 
92.41

>  <iupac_name>  (63) 
3-(6-((4-phenylbutan-2-yl)amino)-[1,2,4]triazolo[4,3-b]pyridazin-3-yl)propanoic acid

>  <Num_H_Acceptors_Lipinski>  (63) 
7

>  <Num_H_Donors_Lipinski>  (63) 
2

>  <Molecular_Weight>  (63) 
339.39164

>  <ALogP>  (63) 
3.045

>  <Num_RotatableBonds>  (63) 
8

>  <Molecular_PolarSurfaceArea>  (63) 
92.41

>  <Num_H_Acceptors>  (63) 
6

>  <Num_H_Donors>  (63) 
2

>  <ADMET_Solubility>  (63) 
-3.981

>  <ADMET_Solubility_Level>  (63) 
3

>  <ADMET_Unknown_AlogP98>  (63) 
0

>  <ADMET_BBB>  (63) 
-0.557

>  <ADMET_BBB_Level>  (63) 
3

>  <ADMET_EXT_CYP2D6>  (63) 
-6.31629250766673

>  <ADMET_EXT_CYP2D6#Prediction>  (63) 
false

>  <ADMET_EXT_CYP2D6_Applicability>  (63) 
All properties and OPS components are within expected ranges.
Unknown FCFP_2 feature: -332197802: [*][c](:[*]):n1:n:[*]:[*]:[c]:1:[*]
Unknown FCFP_2 feature: -1564473960: [*][c](:[*]):[c]1:n:[*]:[*]:n:1:[*]

>  <ADMET_EXT_CYP2D6_Applicability#MD>  (63) 
13.3529504622915

>  <ADMET_EXT_CYP2D6_Applicability#MDpvalue>  (63) 
0.000130587343066505

>  <ADMET_EXT_Hepatotoxic>  (63) 
-7.73958851867265

>  <ADMET_EXT_Hepatotoxic#Prediction>  (63) 
false

>  <ADMET_EXT_Hepatotoxic_Applicability>  (63) 
All properties and OPS components are within expected ranges.
Unknown FCFP_2 feature: -332197802: [*][c](:[*]):n1:n:[*]:[*]:[c]:1:[*]

>  <ADMET_EXT_Hepatotoxic_Applicability#MD>  (63) 
15.8773318931058

>  <ADMET_EXT_Hepatotoxic_Applicability#MDpvalue>  (63) 
1.19311031537676e-13

>  <ADMET_Absorption_Level>  (63) 
0

>  <ADMET_EXT_PPB>  (63) 
1.406786610304

>  <ADMET_EXT_PPB#Prediction>  (63) 
true

>  <ADMET_EXT_PPB_Applicability>  (63) 
All properties and OPS components are within expected ranges.

>  <ADMET_EXT_PPB_Applicability#MD>  (63) 
12.156844626957

>  <ADMET_EXT_PPB_Applicability#MDpvalue>  (63) 
0.0657941553268568

>  <ADMET_AlogP98>  (63) 
3.306

>  <ADMET_PSA_2D>  (63) 
90.057

$$$$
STOCK6S-82954
     RDKit          3D

 25 28  0  0  0  0  0  0  0  0999 V2000
   11.4105   -7.2478    0.0173 C   0  0  0  0  0  0  0  0  0  0  0  0
   11.6948   -5.9312    0.0960 C   0  0  0  0  0  0  0  0  0  0  0  0
   10.0384   -7.9239   -0.0465 C   0  0  0  0  0  0  0  0  0  0  0  0
   13.1095   -5.7787    0.1175 N   0  0  0  0  0  0  0  0  0  0  0  0
   12.6851   -7.9619   -0.0113 C   0  0  0  0  0  0  0  0  0  0  0  0
    8.7503   -7.2472    0.0147 N   0  0  0  0  0  0  0  0  0  0  0  0
   13.6970   -7.0158    0.0537 C   0  0  0  0  0  0  0  0  0  0  0  0
    4.9417   -5.3114   -0.0590 C   0  0  0  0  0  0  0  0  0  0  0  0
    6.1825   -5.9915   -0.0200 N   0  0  0  0  0  0  0  0  0  0  0  0
   10.0127   -9.1488   -0.2101 O   0  0  0  0  0  0  0  0  0  0  0  0
    3.6274   -5.9550    0.3271 C   0  0  2  0  0  0  0  0  0  0  0  0
    8.6022   -5.8239    0.2312 C   0  0  0  0  0  0  0  0  0  0  0  0
    7.5574   -8.0493   -0.1489 C   0  0  0  0  0  0  0  0  0  0  0  0
    6.3127   -7.3494    0.4719 C   0  0  0  0  0  0  0  0  0  0  0  0
    7.3413   -5.2805   -0.4568 C   0  0  0  0  0  0  0  0  0  0  0  0
    4.9277   -4.1408   -0.4553 O   0  0  0  0  0  0  0  0  0  0  0  0
    3.4370   -7.2953   -0.1478 O   0  0  0  0  0  0  0  0  0  0  0  0
   13.8052   -4.5277    0.1821 C   0  0  0  0  0  0  0  0  0  0  0  0
   12.9279   -9.2644   -0.0804 C   0  0  0  0  0  0  0  0  0  0  0  0
   14.9857   -7.3270    0.0508 C   0  0  0  0  0  0  0  0  0  0  0  0
    1.9966   -7.5314   -0.0293 C   0  0  0  0  0  0  0  0  0  0  0  0
    2.4195   -5.1969   -0.1670 C   0  0  0  0  0  0  0  0  0  0  0  0
   14.3501   -9.6833   -0.0873 C   0  0  0  0  0  0  0  0  0  0  0  0
    1.3878   -6.1587    0.3807 C   0  0  0  0  0  0  0  0  0  0  0  0
   15.3259   -8.7633   -0.0253 C   0  0  0  0  0  0  0  0  0  0  0  0
  2  1  2  0
  3  1  1  0
  4  2  1  0
  5  1  1  0
  6  3  1  0
  7  5  2  0
  8  9  1  0
  9 14  1  0
 10  3  2  0
 11  8  1  6
 12  6  1  0
 13  6  1  0
 14 13  1  0
 15 12  1  0
 16  8  2  0
 17 11  1  0
 18  4  1  0
 19  5  1  0
 20  7  1  0
 21 17  1  0
 22 11  1  0
 23 19  2  0
 24 22  1  0
 25 23  1  0
  7  4  1  0
 25 20  2  0
 15  9  1  0
 24 21  1  0
M  END
>  <Name>  (64) 
STOCK6S-82954

>  <id>  (64) 
STOCK6S-82954

>  <index>  (64) 
SCD

>  <donors>  (64) 
0

>  <acceptors>  (64) 
6

>  <rotatable>  (64) 
4

>  <clogp>  (64) 
1.907

>  <rings>  (64) 
4

>  <tpsa>  (64) 
54.78

>  <iupac_name>  (64) 
(1-methyl-1H-indol-3-yl)(4-(tetrahydrofuran-2-carbonyl)piperazin-1-yl)methanone

>  <Num_H_Acceptors_Lipinski>  (64) 
6

>  <Num_H_Donors_Lipinski>  (64) 
0

>  <Molecular_Weight>  (64) 
341.40422

>  <ALogP>  (64) 
1.293

>  <Num_RotatableBonds>  (64) 
2

>  <Molecular_PolarSurfaceArea>  (64) 
54.78

>  <Num_H_Acceptors>  (64) 
3

>  <Num_H_Donors>  (64) 
0

>  <ADMET_Solubility>  (64) 
-3.185

>  <ADMET_Solubility_Level>  (64) 
3

>  <ADMET_Unknown_AlogP98>  (64) 
0

>  <ADMET_BBB>  (64) 
-0.634

>  <ADMET_BBB_Level>  (64) 
3

>  <ADMET_EXT_CYP2D6>  (64) 
-5.350884004116

>  <ADMET_EXT_CYP2D6#Prediction>  (64) 
false

>  <ADMET_EXT_CYP2D6_Applicability>  (64) 
All properties and OPS components are within expected ranges.

>  <ADMET_EXT_CYP2D6_Applicability#MD>  (64) 
16.6950482484265

>  <ADMET_EXT_CYP2D6_Applicability#MDpvalue>  (64) 
2.31929022375756e-08

>  <ADMET_EXT_Hepatotoxic>  (64) 
-6.50592397810216

>  <ADMET_EXT_Hepatotoxic#Prediction>  (64) 
false

>  <ADMET_EXT_Hepatotoxic_Applicability>  (64) 
All properties and OPS components are within expected ranges.

>  <ADMET_EXT_Hepatotoxic_Applicability#MD>  (64) 
17.209016315516

>  <ADMET_EXT_Hepatotoxic_Applicability#MDpvalue>  (64) 
1.51678330978077e-17

>  <ADMET_Absorption_Level>  (64) 
0

>  <ADMET_EXT_PPB>  (64) 
0.799336826302638

>  <ADMET_EXT_PPB#Prediction>  (64) 
true

>  <ADMET_EXT_PPB_Applicability>  (64) 
All properties and OPS components are within expected ranges.

>  <ADMET_EXT_PPB_Applicability#MD>  (64) 
15.3237259363171

>  <ADMET_EXT_PPB_Applicability#MDpvalue>  (64) 
1.05768043230829e-07

>  <ADMET_AlogP98>  (64) 
1.293

>  <ADMET_PSA_2D>  (64) 
55.584

$$$$
STOCK6S-83912
     RDKit          3D

 25 27  0  0  0  0  0  0  0  0999 V2000
    2.3144   -5.5041   -0.1596 C   0  0  0  0  0  0  0  0  0  0  0  0
    3.1758   -4.6177    0.2163 N   0  0  0  0  0  0  0  0  0  0  0  0
    2.8569   -6.7381   -0.3986 N   0  0  0  0  0  0  0  0  0  0  0  0
    1.1542   -5.0206   -0.2450 N   0  0  0  0  0  0  0  0  0  0  0  0
    4.4807   -5.1549    0.4140 C   0  0  1  0  0  0  0  0  0  0  0  0
    4.1664   -6.5838   -0.1235 C   0  0  0  0  0  0  0  0  0  0  0  0
    2.6130   -3.4407    0.4080 N   0  0  0  0  0  0  0  0  0  0  0  0
    1.3700   -3.6549    0.1374 C   0  0  0  0  0  0  0  0  0  0  0  0
   10.7202   -2.8865    0.0231 C   0  0  0  0  0  0  0  0  0  0  0  0
   10.7166   -4.3929   -0.0088 C   0  0  0  0  0  0  0  0  0  0  0  0
    5.6924   -4.3757   -0.2046 C   0  0  0  0  0  0  0  0  0  0  0  0
    7.0010   -5.1192    0.0266 C   0  0  0  0  0  0  0  0  0  0  0  0
    9.4568   -5.1823   -0.1294 C   0  0  0  0  0  0  0  0  0  0  0  0
    8.1796   -4.5254   -0.2631 N   0  0  0  0  0  0  0  0  0  0  0  0
    5.0046   -7.4791   -0.2720 O   0  0  0  0  0  0  0  0  0  0  0  0
    6.9639   -6.2575    0.5011 O   0  0  0  0  0  0  0  0  0  0  0  0
   11.0729   -2.4355   -1.2304 F   0  0  0  0  0  0  0  0  0  0  0  0
   11.7026   -2.4557    0.8937 F   0  0  0  0  0  0  0  0  0  0  0  0
    9.4876   -2.3719    0.3566 F   0  0  0  0  0  0  0  0  0  0  0  0
   11.8862   -5.0268    0.0904 C   0  0  0  0  0  0  0  0  0  0  0  0
    0.2860   -2.6197    0.2056 C   0  0  0  0  0  0  0  0  0  0  0  0
    9.5385   -6.5140   -0.1370 C   0  0  0  0  0  0  0  0  0  0  0  0
   -1.0648   -3.2707   -0.1566 C   0  0  0  0  0  0  0  0  0  0  0  0
   11.9458   -6.4842    0.0796 C   0  0  0  0  0  0  0  0  0  0  0  0
   10.8266   -7.1932   -0.0259 C   0  0  0  0  0  0  0  0  0  0  0  0
  2  1  1  0
  3  1  1  0
  4  1  2  0
  5  2  1  0
  6  3  1  0
  7  2  1  0
  8  4  1  0
  9 10  1  0
 10 13  2  0
  5 11  1  6
 12 11  1  0
 13 14  1  0
 14 12  1  0
 15  6  2  0
 16 12  2  0
 17  9  1  0
 18  9  1  0
 19  9  1  0
 20 10  1  0
 21  8  1  0
 22 13  1  0
 23 21  1  0
 24 25  1  0
 25 22  2  0
  8  7  2  0
  6  5  1  0
 24 20  2  0
M  END
>  <Name>  (65) 
STOCK6S-83912

>  <id>  (65) 
STOCK6S-83912

>  <index>  (65) 
SCD

>  <donors>  (65) 
2

>  <acceptors>  (65) 
7

>  <rotatable>  (65) 
6

>  <clogp>  (65) 
0.931

>  <rings>  (65) 
3

>  <tpsa>  (65) 
88.91

>  <iupac_name>  (65) 
2-(2-ethyl-5-oxo-5,6-dihydro-4H-imidazo[1,2-b][1,2,4]triazol-6-yl)-N-(2-(trifluoromethyl)phenyl)acetamide

>  <Num_H_Acceptors_Lipinski>  (65) 
7

>  <Num_H_Donors_Lipinski>  (65) 
2

>  <Molecular_Weight>  (65) 
353.29917

>  <ALogP>  (65) 
1.728

>  <Num_RotatableBonds>  (65) 
5

>  <Molecular_PolarSurfaceArea>  (65) 
88.91

>  <Num_H_Acceptors>  (65) 
4

>  <Num_H_Donors>  (65) 
2

>  <ADMET_Solubility>  (65) 
-3.928

>  <ADMET_Solubility_Level>  (65) 
3

>  <ADMET_Unknown_AlogP98>  (65) 
0

>  <ADMET_BBB>  (65) 
-1.014

>  <ADMET_BBB_Level>  (65) 
3

>  <ADMET_EXT_CYP2D6>  (65) 
-6.30093704643126

>  <ADMET_EXT_CYP2D6#Prediction>  (65) 
false

>  <ADMET_EXT_CYP2D6_Applicability>  (65) 
All properties and OPS components are within expected ranges.

>  <ADMET_EXT_CYP2D6_Applicability#MD>  (65) 
13.0169713935337

>  <ADMET_EXT_CYP2D6_Applicability#MDpvalue>  (65) 
0.00029248374522138

>  <ADMET_EXT_Hepatotoxic>  (65) 
-6.82907983572202

>  <ADMET_EXT_Hepatotoxic#Prediction>  (65) 
false

>  <ADMET_EXT_Hepatotoxic_Applicability>  (65) 
All properties and OPS components are within expected ranges.
Unknown FCFP_2 feature: 1315386651: [*]CC(C[*])n(:[*]):[*]

>  <ADMET_EXT_Hepatotoxic_Applicability#MD>  (65) 
10.4101986551342

>  <ADMET_EXT_Hepatotoxic_Applicability#MDpvalue>  (65) 
0.0340204292499958

>  <ADMET_Absorption_Level>  (65) 
0

>  <ADMET_EXT_PPB>  (65) 
-0.93707881733199

>  <ADMET_EXT_PPB#Prediction>  (65) 
true

>  <ADMET_EXT_PPB_Applicability>  (65) 
All properties and OPS components are within expected ranges.

>  <ADMET_EXT_PPB_Applicability#MD>  (65) 
12.3184766937841

>  <ADMET_EXT_PPB_Applicability#MDpvalue>  (65) 
0.0438320468137432

>  <ADMET_AlogP98>  (65) 
1.728

>  <ADMET_PSA_2D>  (65) 
88.092

$$$$
STOCK6S-86022
     RDKit          3D

 26 28  0  0  0  0  0  0  0  0999 V2000
    8.5788   -3.5073    0.0000 N   0  0  0  0  0  0  0  0  0  0  0  0
    8.6287   -4.8732   -0.0003 N   0  0  0  0  0  0  0  0  0  0  0  0
    9.6940   -2.7841    0.0002 C   0  0  0  0  0  0  0  0  0  0  0  0
    9.6713   -5.5111   -0.0005 N   0  0  0  0  0  0  0  0  0  0  0  0
   10.9494   -3.4528    0.0000 C   0  0  0  0  0  0  0  0  0  0  0  0
    7.3177   -2.8043    0.0002 C   0  0  0  0  0  0  0  0  0  0  0  0
    6.0882   -3.6871    0.0001 C   0  0  0  0  0  0  0  0  0  0  0  0
   10.9154   -4.8775   -0.0003 C   0  0  0  0  0  0  0  0  0  0  0  0
   -0.3761   -5.4448   -0.0001 C   0  0  0  0  0  0  0  0  0  0  0  0
    4.8998   -3.0676    0.0002 N   0  0  0  0  0  0  0  0  0  0  0  0
    9.6428   -1.5465    0.0005 O   0  0  0  0  0  0  0  0  0  0  0  0
    1.0010   -4.7645    0.0000 C   0  0  0  0  0  0  0  0  0  0  0  0
    6.1883   -4.9198    0.0000 O   0  0  0  0  0  0  0  0  0  0  0  0
   -0.3623   -6.6805    0.0000 O   0  0  0  0  0  0  0  0  0  0  0  0
    2.0733   -5.5613    0.0001 C   0  0  0  0  0  0  0  0  0  0  0  0
    1.2288   -3.3054    0.0000 C   0  0  0  0  0  0  0  0  0  0  0  0
    3.6186   -3.6786    0.0001 C   0  0  0  0  0  0  0  0  0  0  0  0
   -1.7063   -4.8270   -0.0003 O   0  0  0  0  0  0  0  0  0  0  0  0
   12.0998   -2.7890    0.0002 C   0  0  0  0  0  0  0  0  0  0  0  0
    2.4577   -2.8027    0.0000 C   0  0  0  0  0  0  0  0  0  0  0  0
    3.4376   -5.0002    0.0001 C   0  0  0  0  0  0  0  0  0  0  0  0
   12.0505   -5.5763   -0.0005 C   0  0  0  0  0  0  0  0  0  0  0  0
   -1.8433   -3.3951   -0.0004 C   0  0  0  0  0  0  0  0  0  0  0  0
   13.3604   -3.5348    0.0000 C   0  0  0  0  0  0  0  0  0  0  0  0
   -3.3334   -3.0122   -0.0006 C   0  0  0  0  0  0  0  0  0  0  0  0
   13.3370   -4.8680   -0.0003 C   0  0  0  0  0  0  0  0  0  0  0  0
  2  1  1  0
  3  1  1  0
  4  2  2  0
  5  3  1  0
  6  1  1  0
  7  6  1  0
  8  5  2  0
  9 12  1  0
 10  7  1  0
 11  3  2  0
 12 15  2  0
 13  7  2  0
 14  9  2  0
 15 21  1  0
 16 20  2  0
 17 10  1  0
 18  9  1  0
 19  5  1  0
 20 17  1  0
 21 17  2  0
 22  8  1  0
 23 18  1  0
 24 19  2  0
 25 23  1  0
 26 24  1  0
  8  4  1  0
 22 26  2  0
 12 16  1  0
M  END
>  <Name>  (66) 
STOCK6S-86022

>  <id>  (66) 
STOCK6S-86022

>  <index>  (66) 
SCD

>  <donors>  (66) 
1

>  <acceptors>  (66) 
8

>  <rotatable>  (66) 
7

>  <clogp>  (66) 
2.974

>  <rings>  (66) 
3

>  <tpsa>  (66) 
103.18

>  <iupac_name>  (66) 
ethyl 4-(2-(4-oxobenzo[d][1,2,3]triazin-3(4H)-yl)acetamido)benzoate

>  <Num_H_Acceptors_Lipinski>  (66) 
8

>  <Num_H_Donors_Lipinski>  (66) 
1

>  <Molecular_Weight>  (66) 
352.34404

>  <ALogP>  (66) 
2.672

>  <Num_RotatableBonds>  (66) 
6

>  <Molecular_PolarSurfaceArea>  (66) 
100.43

>  <Num_H_Acceptors>  (66) 
6

>  <Num_H_Donors>  (66) 
1

>  <ADMET_Solubility>  (66) 
-3.871

>  <ADMET_Solubility_Level>  (66) 
3

>  <ADMET_Unknown_AlogP98>  (66) 
0

>  <ADMET_BBB>  (66) 
-0.905

>  <ADMET_BBB_Level>  (66) 
3

>  <ADMET_EXT_CYP2D6>  (66) 
-9.07900903125634

>  <ADMET_EXT_CYP2D6#Prediction>  (66) 
false

>  <ADMET_EXT_CYP2D6_Applicability>  (66) 
All properties and OPS components are within expected ranges.
Unknown FCFP_2 feature: -1971196727: [*]\N=N/N([*])[*]
Unknown FCFP_2 feature: -1971703174: [*]\N=N/[c](:[*]):[*]

>  <ADMET_EXT_CYP2D6_Applicability#MD>  (66) 
16.2042167900603

>  <ADMET_EXT_CYP2D6_Applicability#MDpvalue>  (66) 
8.56856329093751e-08

>  <ADMET_EXT_Hepatotoxic>  (66) 
-4.69261145552502

>  <ADMET_EXT_Hepatotoxic#Prediction>  (66) 
false

>  <ADMET_EXT_Hepatotoxic_Applicability>  (66) 
All properties and OPS components are within expected ranges.

>  <ADMET_EXT_Hepatotoxic_Applicability#MD>  (66) 
10.0090454283166

>  <ADMET_EXT_Hepatotoxic_Applicability#MDpvalue>  (66) 
0.0882898200090298

>  <ADMET_Absorption_Level>  (66) 
0

>  <ADMET_EXT_PPB>  (66) 
-2.49401359601609

>  <ADMET_EXT_PPB#Prediction>  (66) 
false

>  <ADMET_EXT_PPB_Applicability>  (66) 
All properties and OPS components are within expected ranges.

>  <ADMET_EXT_PPB_Applicability#MD>  (66) 
13.2273721803068

>  <ADMET_EXT_PPB_Applicability#MDpvalue>  (66) 
0.0025026713979545

>  <ADMET_AlogP98>  (66) 
2.672

>  <ADMET_PSA_2D>  (66) 
99.641

$$$$
STOCK6S-87500
     RDKit          3D

 23 25  0  0  0  0  0  0  0  0999 V2000
   -0.1237   -1.2236    0.2379 C   0  0  0  0  0  0  0  0  0  0  0  0
   -0.8290   -2.2971    0.1605 N   0  0  0  0  0  0  0  0  0  0  0  0
   -0.9254   -0.0385    0.1597 N   0  0  0  0  0  0  0  0  0  0  0  0
    4.1980   -1.1662    0.0214 N   0  0  0  0  0  0  0  0  0  0  0  0
   -2.1548   -1.8915    0.0263 C   0  0  0  0  0  0  0  0  0  0  0  0
    5.6043   -1.1477   -0.0656 C   0  0  0  0  0  0  0  0  0  0  0  0
   -2.2038   -0.5075    0.0301 C   0  0  0  0  0  0  0  0  0  0  0  0
    1.3689   -1.2109    0.4215 C   0  0  0  0  0  0  0  0  0  0  0  0
   10.0921    1.0738   -0.0166 C   0  0  0  0  0  0  0  0  0  0  0  0
    3.5253   -2.4627    0.1139 C   0  0  0  0  0  0  0  0  0  0  0  0
    3.4851    0.1070    0.1556 C   0  0  0  0  0  0  0  0  0  0  0  0
    6.2311   -2.2120   -0.1193 O   0  0  0  0  0  0  0  0  0  0  0  0
   10.8479    2.0524    0.0027 O   0  0  0  0  0  0  0  0  0  0  0  0
    2.0175   -2.4289   -0.2219 C   0  0  0  0  0  0  0  0  0  0  0  0
    1.9828    0.0400   -0.1868 C   0  0  0  0  0  0  0  0  0  0  0  0
   10.6219   -0.2125   -0.0203 O   0  0  0  0  0  0  0  0  0  0  0  0
    6.3501    0.1637   -0.0548 C   0  0  0  0  0  0  0  0  0  0  0  0
    7.8741   -0.0828   -0.0583 C   0  0  0  0  0  0  0  0  0  0  0  0
    8.6019    1.2781   -0.0312 C   0  0  0  0  0  0  0  0  0  0  0  0
   -3.2408   -2.6461   -0.0809 C   0  0  0  0  0  0  0  0  0  0  0  0
   -3.3356    0.1780   -0.0735 C   0  0  0  0  0  0  0  0  0  0  0  0
   -4.5412   -1.9458   -0.2025 C   0  0  0  0  0  0  0  0  0  0  0  0
   -4.5859   -0.6045   -0.1987 C   0  0  0  0  0  0  0  0  0  0  0  0
  2  1  2  0
  3  1  1  0
  4 11  1  0
  5  2  1  0
  6  4  1  0
  7  3  1  0
  8  1  1  0
  9 19  1  0
 10 14  1  0
 11 15  1  0
 12  6  2  0
 13  9  2  0
 14  8  1  0
 15  8  1  0
 16  9  1  0
 17  6  1  0
 18 17  1  0
 19 18  1  0
 20  5  2  0
 21  7  2  0
 22 20  1  0
 23 21  1  0
  5  7  1  0
  4 10  1  0
 22 23  2  0
M  END
>  <Name>  (67) 
STOCK6S-87500

>  <id>  (67) 
STOCK6S-87500

>  <index>  (67) 
SCD

>  <donors>  (67) 
2

>  <acceptors>  (67) 
6

>  <rotatable>  (67) 
6

>  <clogp>  (67) 
1.157

>  <rings>  (67) 
3

>  <tpsa>  (67) 
86.29

>  <iupac_name>  (67) 
5-(4-(1H-benzo[d]imidazol-2-yl)piperidin-1-yl)-5-oxopentanoic acid

>  <Num_H_Acceptors_Lipinski>  (67) 
6

>  <Num_H_Donors_Lipinski>  (67) 
2

>  <Molecular_Weight>  (67) 
315.36694

>  <ALogP>  (67) 
1.793

>  <Num_RotatableBonds>  (67) 
5

>  <Molecular_PolarSurfaceArea>  (67) 
86.29

>  <Num_H_Acceptors>  (67) 
4

>  <Num_H_Donors>  (67) 
2

>  <ADMET_Solubility>  (67) 
-2.865

>  <ADMET_Solubility_Level>  (67) 
3

>  <ADMET_Unknown_AlogP98>  (67) 
0

>  <ADMET_BBB>  (67) 
-0.946

>  <ADMET_BBB_Level>  (67) 
3

>  <ADMET_EXT_CYP2D6>  (67) 
-11.35764484531

>  <ADMET_EXT_CYP2D6#Prediction>  (67) 
false

>  <ADMET_EXT_CYP2D6_Applicability>  (67) 
All properties and OPS components are within expected ranges.

>  <ADMET_EXT_CYP2D6_Applicability#MD>  (67) 
13.8434390689401

>  <ADMET_EXT_CYP2D6_Applicability#MDpvalue>  (67) 
3.9054471704616e-05

>  <ADMET_EXT_Hepatotoxic>  (67) 
-5.50052503032567

>  <ADMET_EXT_Hepatotoxic#Prediction>  (67) 
false

>  <ADMET_EXT_Hepatotoxic_Applicability>  (67) 
All properties and OPS components are within expected ranges.

>  <ADMET_EXT_Hepatotoxic_Applicability#MD>  (67) 
11.3111070198716

>  <ADMET_EXT_Hepatotoxic_Applicability#MDpvalue>  (67) 
0.00219949630302511

>  <ADMET_Absorption_Level>  (67) 
0

>  <ADMET_EXT_PPB>  (67) 
-1.37811733115781

>  <ADMET_EXT_PPB#Prediction>  (67) 
true

>  <ADMET_EXT_PPB_Applicability>  (67) 
All properties and OPS components are within expected ranges.

>  <ADMET_EXT_PPB_Applicability#MD>  (67) 
11.1328085656478

>  <ADMET_EXT_PPB_Applicability#MDpvalue>  (67) 
0.418196800125942

>  <ADMET_AlogP98>  (67) 
1.793

>  <ADMET_PSA_2D>  (67) 
85.085

$$$$
STOCK6S-88542
     RDKit          3D

 20 21  0  0  0  0  0  0  0  0999 V2000
    1.3471   -4.1515   -0.9641 N   0  0  0  0  0  0  0  0  0  0  0  0
    1.8576   -3.1113   -0.5862 N   0  0  0  0  0  0  0  0  0  0  0  0
    0.1255   -4.3099   -0.3882 N   0  0  0  0  0  0  0  0  0  0  0  0
    1.0191   -2.5332    0.2522 N   0  0  0  0  0  0  0  0  0  0  0  0
   -0.0916   -3.3154    0.3687 C   0  0  0  0  0  0  0  0  0  0  0  0
    5.0211   -0.4109    0.0905 C   0  0  0  0  0  0  0  0  0  0  0  0
    2.3739   -0.3642    0.4935 C   0  0  0  0  0  0  0  0  0  0  0  0
    1.2237   -1.2984    1.0009 C   0  0  0  0  0  0  0  0  0  0  0  0
    6.2000   -1.0005    0.1693 N   0  0  0  0  0  0  0  0  0  0  0  0
    3.7595   -1.1465    0.5443 C   0  0  0  0  0  0  0  0  0  0  0  0
    4.9781    0.7431   -0.3718 O   0  0  0  0  0  0  0  0  0  0  0  0
    7.3696   -0.2830   -0.2454 C   0  0  0  0  0  0  0  0  0  0  0  0
    2.2782    0.8756    1.4679 C   0  0  0  0  0  0  0  0  0  0  0  0
    2.1053    0.1284   -0.9673 C   0  0  0  0  0  0  0  0  0  0  0  0
    8.5451   -1.2473   -0.4506 C   0  0  0  0  0  0  0  0  0  0  0  0
    8.8247   -2.0097    0.8554 C   0  0  0  0  0  0  0  0  0  0  0  0
    9.7929   -0.4381   -0.8524 C   0  0  0  0  0  0  0  0  0  0  0  0
    2.7833    2.1317    0.7931 C   0  0  0  0  0  0  0  0  0  0  0  0
    1.0224    1.1914   -0.9092 C   0  0  0  0  0  0  0  0  0  0  0  0
    1.7016    2.4935   -0.3008 C   0  0  0  0  0  0  0  0  0  0  0  0
  2  1  2  0
  3  1  1  0
  4  2  1  0
  5  3  2  0
  6 10  1  0
  7  8  1  0
  8  4  1  0
  9  6  1  0
 10  7  1  0
 11  6  2  0
 12  9  1  0
  7 13  1  0
  7 14  1  0
 15 12  1  0
 16 15  1  0
 17 15  1  0
 18 13  1  0
 19 14  1  0
 20 19  1  0
  4  5  1  0
 18 20  1  0
M  END
>  <Name>  (68) 
STOCK6S-88542

>  <id>  (68) 
STOCK6S-88542

>  <index>  (68) 
SCD

>  <donors>  (68) 
1

>  <acceptors>  (68) 
6

>  <rotatable>  (68) 
7

>  <clogp>  (68) 
2.74

>  <rings>  (68) 
2

>  <tpsa>  (68) 
72.7

>  <iupac_name>  (68) 
2-(1-((1H-tetrazol-1-yl)methyl)cyclohexyl)-N-isobutylacetamide

>  <Num_H_Acceptors_Lipinski>  (68) 
6

>  <Num_H_Donors_Lipinski>  (68) 
1

>  <Molecular_Weight>  (68) 
279.3812

>  <ALogP>  (68) 
1.551

>  <Num_RotatableBonds>  (68) 
6

>  <Molecular_PolarSurfaceArea>  (68) 
72.7

>  <Num_H_Acceptors>  (68) 
4

>  <Num_H_Donors>  (68) 
1

>  <ADMET_Solubility>  (68) 
-2.799

>  <ADMET_Solubility_Level>  (68) 
3

>  <ADMET_Unknown_AlogP98>  (68) 
0

>  <ADMET_BBB>  (68) 
-0.662

>  <ADMET_BBB_Level>  (68) 
3

>  <ADMET_EXT_CYP2D6>  (68) 
-6.47630157364736

>  <ADMET_EXT_CYP2D6#Prediction>  (68) 
false

>  <ADMET_EXT_CYP2D6_Applicability>  (68) 
All properties and OPS components are within expected ranges.

>  <ADMET_EXT_CYP2D6_Applicability#MD>  (68) 
16.8034691343762

>  <ADMET_EXT_CYP2D6_Applicability#MDpvalue>  (68) 
1.73670796890929e-08

>  <ADMET_EXT_Hepatotoxic>  (68) 
-5.22142073756621

>  <ADMET_EXT_Hepatotoxic#Prediction>  (68) 
false

>  <ADMET_EXT_Hepatotoxic_Applicability>  (68) 
All properties and OPS components are within expected ranges.

>  <ADMET_EXT_Hepatotoxic_Applicability#MD>  (68) 
14.6845907487401

>  <ADMET_EXT_Hepatotoxic_Applicability#MDpvalue>  (68) 
1.96373165648132e-10

>  <ADMET_Absorption_Level>  (68) 
0

>  <ADMET_EXT_PPB>  (68) 
-5.03594444076495

>  <ADMET_EXT_PPB#Prediction>  (68) 
false

>  <ADMET_EXT_PPB_Applicability>  (68) 
OPS PC37 out of range. Value: -3.4935. Training min, max, SD, explained variance: -3.2357, 3.588, 0.9593, 0.0076.

>  <ADMET_EXT_PPB_Applicability#MD>  (68) 
12.9408657552311

>  <ADMET_EXT_PPB_Applicability#MDpvalue>  (68) 
0.00685242529080879

>  <ADMET_AlogP98>  (68) 
1.9

>  <ADMET_PSA_2D>  (68) 
69.242

$$$$
STOCK6S-89857
     RDKit          3D

 29 31  0  0  0  0  0  0  0  0999 V2000
    4.0472   -6.2979   -0.0513 C   0  0  0  0  0  0  0  0  0  0  0  0
    6.5281   -6.0838   -0.1712 C   0  0  0  0  0  0  0  0  0  0  0  0
    5.2177   -5.4728   -0.2389 C   0  0  0  0  0  0  0  0  0  0  0  0
   11.9054   -6.2289   -0.0293 N   0  0  0  0  0  0  0  0  0  0  0  0
    6.6397   -7.3877    0.0863 C   0  0  0  0  0  0  0  0  0  0  0  0
    4.2135   -7.5967    0.1938 C   0  0  0  0  0  0  0  0  0  0  0  0
    5.4878   -8.1435    0.2718 O   0  0  0  0  0  0  0  0  0  0  0  0
    9.2628   -7.3198   -0.1753 N   0  0  0  0  0  0  0  0  0  0  0  0
    2.7722   -5.6976   -0.1320 O   0  0  0  0  0  0  0  0  0  0  0  0
    0.4017   -5.8137   -0.0066 C   0  0  0  0  0  0  0  0  0  0  0  0
    8.0169   -8.1061    0.1869 C   0  0  0  0  0  0  0  0  0  0  0  0
   10.7640   -5.4022    0.3022 C   0  0  0  0  0  0  0  0  0  0  0  0
   11.7326   -7.5876   -0.5199 C   0  0  0  0  0  0  0  0  0  0  0  0
   13.1906   -5.6489   -0.0227 C   0  0  0  0  0  0  0  0  0  0  0  0
    5.1012   -4.2613   -0.4449 O   0  0  0  0  0  0  0  0  0  0  0  0
    0.4635   -4.5846   -0.1206 O   0  0  0  0  0  0  0  0  0  0  0  0
    9.5560   -6.2330    0.7845 C   0  0  0  0  0  0  0  0  0  0  0  0
   10.4083   -8.2409   -0.0487 C   0  0  0  0  0  0  0  0  0  0  0  0
    1.6803   -6.6164    0.0535 C   0  0  0  0  0  0  0  0  0  0  0  0
   -0.7909   -6.4045    0.0604 N   0  0  0  0  0  0  0  0  0  0  0  0
   -4.4028   -5.6137   -0.0211 O   0  0  0  0  0  0  0  0  0  0  0  0
   13.3455   -4.2194    0.2783 C   0  0  0  0  0  0  0  0  0  0  0  0
   14.2682   -6.3883   -0.2878 C   0  0  0  0  0  0  0  0  0  0  0  0
   -1.9781   -5.5869   -0.0012 C   0  0  0  0  0  0  0  0  0  0  0  0
   -3.2468   -6.4611    0.0372 C   0  0  0  0  0  0  0  0  0  0  0  0
   -5.5903   -6.4104    0.0098 C   0  0  0  0  0  0  0  0  0  0  0  0
   15.6020   -5.7750   -0.2745 C   0  0  0  0  0  0  0  0  0  0  0  0
   14.5559   -3.6629    0.2842 C   0  0  0  0  0  0  0  0  0  0  0  0
   15.7379   -4.4777   -0.0034 C   0  0  0  0  0  0  0  0  0  0  0  0
  2  3  1  0
  3  1  1  0
  4 13  1  0
  5  7  1  0
  6  1  2  0
  7  6  1  0
  8 11  1  0
  9  1  1  0
 10 19  1  0
 11  5  1  0
 12 17  1  0
 13 18  1  0
 14  4  1  0
 15  3  2  0
 16 10  2  0
 17  8  1  0
 18  8  1  0
 19  9  1  0
 20 10  1  0
 21 25  1  0
 22 14  2  0
 23 14  1  0
 24 20  1  0
 25 24  1  0
 26 21  1  0
 27 23  2  0
 28 22  1  0
 29 27  1  0
  5  2  2  0
 12  4  1  0
 29 28  2  0
M  END
>  <Name>  (69) 
STOCK6S-89857

>  <id>  (69) 
STOCK6S-89857

>  <index>  (69) 
SCD

>  <donors>  (69) 
1

>  <acceptors>  (69) 
8

>  <rotatable>  (69) 
10

>  <clogp>  (69) 
0.893

>  <rings>  (69) 
3

>  <tpsa>  (69) 
84.25

>  <iupac_name>  (69) 
N-(2-methoxyethyl)-2-((4-oxo-6-((4-phenylpiperazin-1-yl)methyl)-4H-pyran-3-yl)oxy)acetamide

>  <Num_H_Acceptors_Lipinski>  (69) 
8

>  <Num_H_Donors_Lipinski>  (69) 
1

>  <Molecular_Weight>  (69) 
401.45618

>  <ALogP>  (69) 
0.352

>  <Num_RotatableBonds>  (69) 
9

>  <Molecular_PolarSurfaceArea>  (69) 
80.34

>  <Num_H_Acceptors>  (69) 
7

>  <Num_H_Donors>  (69) 
1

>  <ADMET_Solubility>  (69) 
-1.323

>  <ADMET_Solubility_Level>  (69) 
4

>  <ADMET_Unknown_AlogP98>  (69) 
0

>  <ADMET_BBB>  (69) 
-1.326

>  <ADMET_BBB_Level>  (69) 
3

>  <ADMET_EXT_CYP2D6>  (69) 
-7.89949713800532

>  <ADMET_EXT_CYP2D6#Prediction>  (69) 
false

>  <ADMET_EXT_CYP2D6_Applicability>  (69) 
OPS PC9 out of range. Value: 4.0781. Training min, max, SD, explained variance: -4.6974, 3.8454, 1.569, 0.0322.

>  <ADMET_EXT_CYP2D6_Applicability#MD>  (69) 
13.9553779946085

>  <ADMET_EXT_CYP2D6_Applicability#MDpvalue>  (69) 
2.95219954656206e-05

>  <ADMET_EXT_Hepatotoxic>  (69) 
-4.2551122504418

>  <ADMET_EXT_Hepatotoxic#Prediction>  (69) 
false

>  <ADMET_EXT_Hepatotoxic_Applicability>  (69) 
OPS PC12 out of range. Value: 5.4875. Training min, max, SD, explained variance: -5.6198, 5.242, 1.435, 0.0257.

>  <ADMET_EXT_Hepatotoxic_Applicability#MD>  (69) 
13.7327041663261

>  <ADMET_EXT_Hepatotoxic_Applicability#MDpvalue>  (69) 
4.24718663930108e-08

>  <ADMET_Absorption_Level>  (69) 
0

>  <ADMET_EXT_PPB>  (69) 
-5.20811954650999

>  <ADMET_EXT_PPB#Prediction>  (69) 
false

>  <ADMET_EXT_PPB_Applicability>  (69) 
All properties and OPS components are within expected ranges.

>  <ADMET_EXT_PPB_Applicability#MD>  (69) 
14.2024007153196

>  <ADMET_EXT_PPB_Applicability#MDpvalue>  (69) 
4.07795955144185e-05

>  <ADMET_AlogP98>  (69) 
0.352

>  <ADMET_PSA_2D>  (69) 
80.907

$$$$
STOCK6S-92647
     RDKit          3D

 27 28  0  0  0  0  0  0  0  0999 V2000
   -7.2445   -2.8087   -0.6859 S   0  0  0  0  0  0  0  0  0  0  0  0
   -6.9349   -1.3666    0.3012 N   0  0  0  0  0  0  0  0  0  0  0  0
   -5.6123   -0.6738   -0.0341 C   0  0  1  0  0  0  0  0  0  0  0  0
   -5.6001    0.8100    0.4409 C   0  0  0  0  0  0  0  0  0  0  0  0
   -4.2851   -1.4354    0.3587 C   0  0  0  0  0  0  0  0  0  0  0  0
   -6.4309   -2.6746   -1.9773 O   0  0  0  0  0  0  0  0  0  0  0  0
   -8.7043   -2.7346   -1.0144 O   0  0  0  0  0  0  0  0  0  0  0  0
   -3.0154   -0.7445   -0.1863 C   0  0  0  0  0  0  0  0  0  0  0  0
   -7.0397   -4.4620   -0.0364 C   0  0  0  0  0  0  0  0  0  0  0  0
   -6.7417    1.4512    0.7261 N   0  0  0  0  0  0  0  0  0  0  0  0
   -7.9692   -0.4455   -0.1884 C   0  0  0  0  0  0  0  0  0  0  0  0
   -4.5557    1.4405    0.5371 O   0  0  0  0  0  0  0  0  0  0  0  0
   -3.1067    0.1900   -0.9962 O   0  0  0  0  0  0  0  0  0  0  0  0
   -1.8036   -1.1326    0.2182 N   0  0  0  0  0  0  0  0  0  0  0  0
   -8.0208    0.8298    0.6510 C   0  0  0  0  0  0  0  0  0  0  0  0
    0.6528   -1.1953    0.2245 C   0  0  0  0  0  0  0  0  0  0  0  0
    3.0945   -1.2039    0.1406 O   0  0  0  0  0  0  0  0  0  0  0  0
   -0.6163   -0.4642   -0.2792 C   0  0  0  0  0  0  0  0  0  0  0  0
   -8.1853   -5.1434    0.2251 C   0  0  0  0  0  0  0  0  0  0  0  0
   -5.7654   -5.1648    0.0630 C   0  0  0  0  0  0  0  0  0  0  0  0
    1.9261   -0.4818   -0.2934 C   0  0  0  0  0  0  0  0  0  0  0  0
    4.2947   -0.5623   -0.3322 C   0  0  0  0  0  0  0  0  0  0  0  0
    5.5225   -1.3958    0.0836 C   0  0  0  0  0  0  0  0  0  0  0  0
    4.4171    0.8545    0.2700 C   0  0  0  0  0  0  0  0  0  0  0  0
   -8.1428   -6.5435    0.6303 C   0  0  0  0  0  0  0  0  0  0  0  0
   -5.7300   -6.4496    0.4073 C   0  0  0  0  0  0  0  0  0  0  0  0
   -6.9797   -7.1779    0.7093 C   0  0  0  0  0  0  0  0  0  0  0  0
  2  1  1  0
  3  2  1  0
  4  3  1  0
  3  5  1  1
  6  1  2  0
  7  1  2  0
  8  5  1  0
  9  1  1  0
 10 15  1  0
 11  2  1  0
 12  4  2  0
 13  8  2  0
 14  8  1  0
 15 11  1  0
 16 18  1  0
 17 21  1  0
 18 14  1  0
 19  9  2  0
 20  9  1  0
 21 16  1  0
 22 17  1  0
 23 22  1  0
 24 22  1  0
 25 19  1  0
 26 20  2  0
 27 26  1  0
 25 27  2  0
  4 10  1  0
M  END
>  <Name>  (70) 
STOCK6S-92647

>  <id>  (70) 
STOCK6S-92647

>  <index>  (70) 
SCD

>  <donors>  (70) 
2

>  <acceptors>  (70) 
8

>  <rotatable>  (70) 
10

>  <clogp>  (70) 
1.715

>  <rings>  (70) 
2

>  <tpsa>  (70) 
104.81

>  <iupac_name>  (70) 
N-(3-isopropoxypropyl)-2-(3-oxo-1-(phenylsulfonyl)piperazin-2-yl)acetamide

>  <Num_H_Acceptors_Lipinski>  (70) 
8

>  <Num_H_Donors_Lipinski>  (70) 
2

>  <Molecular_Weight>  (70) 
397.48908

>  <ALogP>  (70) 
-0.074

>  <Num_RotatableBonds>  (70) 
9

>  <Molecular_PolarSurfaceArea>  (70) 
113.19

>  <Num_H_Acceptors>  (70) 
5

>  <Num_H_Donors>  (70) 
2

>  <ADMET_Solubility>  (70) 
-1.424

>  <ADMET_Solubility_Level>  (70) 
4

>  <ADMET_Unknown_AlogP98>  (70) 
0

>  <ADMET_BBB>  (70) 
-1.872

>  <ADMET_BBB_Level>  (70) 
3

>  <ADMET_EXT_CYP2D6>  (70) 
-15.564381189388

>  <ADMET_EXT_CYP2D6#Prediction>  (70) 
false

>  <ADMET_EXT_CYP2D6_Applicability>  (70) 
All properties and OPS components are within expected ranges.

>  <ADMET_EXT_CYP2D6_Applicability#MD>  (70) 
12.2642063418213

>  <ADMET_EXT_CYP2D6_Applicability#MDpvalue>  (70) 
0.00165273007898903

>  <ADMET_EXT_Hepatotoxic>  (70) 
-5.01860760418555

>  <ADMET_EXT_Hepatotoxic#Prediction>  (70) 
false

>  <ADMET_EXT_Hepatotoxic_Applicability>  (70) 
All properties and OPS components are within expected ranges.

>  <ADMET_EXT_Hepatotoxic_Applicability#MD>  (70) 
9.68787742183293

>  <ADMET_EXT_Hepatotoxic_Applicability#MDpvalue>  (70) 
0.167517287435169

>  <ADMET_Absorption_Level>  (70) 
0

>  <ADMET_EXT_PPB>  (70) 
-2.72672238174348

>  <ADMET_EXT_PPB#Prediction>  (70) 
false

>  <ADMET_EXT_PPB_Applicability>  (70) 
All properties and OPS components are within expected ranges.

>  <ADMET_EXT_PPB_Applicability#MD>  (70) 
14.0836105339719

>  <ADMET_EXT_PPB_Applicability#MDpvalue>  (70) 
7.11504151379945e-05

>  <ADMET_AlogP98>  (70) 
-0.074

>  <ADMET_PSA_2D>  (70) 
107.106

$$$$
STOCK6S-93321
     RDKit          3D

 27 28  0  0  0  0  0  0  0  0999 V2000
   -3.4012   -3.5777   -0.0209 N   0  0  0  0  0  0  0  0  0  0  0  0
   -2.3102   -4.2200   -0.0465 C   0  0  0  0  0  0  0  0  0  0  0  0
   -3.8604   -5.7171   -0.0245 N   0  0  0  0  0  0  0  0  0  0  0  0
   -4.3849   -4.5569   -0.0077 C   0  0  0  0  0  0  0  0  0  0  0  0
   -2.5582   -5.5615   -0.0491 O   0  0  0  0  0  0  0  0  0  0  0  0
    0.1970    0.0765    0.0442 C   0  0  0  0  0  0  0  0  0  0  0  0
    8.8781    0.7132    0.2778 N   0  0  0  0  0  0  0  0  0  0  0  0
    0.1559   -1.4449   -0.0123 C   0  0  0  0  0  0  0  0  0  0  0  0
   -1.0847   -2.1586   -0.0319 O   0  0  0  0  0  0  0  0  0  0  0  0
    1.3966    0.6777    0.0740 C   0  0  0  0  0  0  0  0  0  0  0  0
   -0.9326   -3.5887   -0.0680 C   0  0  0  0  0  0  0  0  0  0  0  0
   11.3688    2.0122   -0.3121 O   0  0  0  0  0  0  0  0  0  0  0  0
    1.3040   -2.1170   -0.0368 C   0  0  0  0  0  0  0  0  0  0  0  0
    2.6432   -0.0794    0.0493 C   0  0  0  0  0  0  0  0  0  0  0  0
    2.6103   -1.4086   -0.0058 C   0  0  0  0  0  0  0  0  0  0  0  0
   -0.9394    0.9609    0.0711 O   0  0  0  0  0  0  0  0  0  0  0  0
    5.1632   -0.1568   -0.0622 N   0  0  0  0  0  0  0  0  0  0  0  0
    3.5540   -4.7562    0.0055 Cl  0  0  0  0  0  0  0  0  0  0  0  0
    7.6802   -0.0944   -0.0991 C   0  0  0  0  0  0  0  0  0  0  0  0
    8.9257    1.9871   -0.4686 C   0  0  0  0  0  0  0  0  0  0  0  0
   10.1052   -0.0580   -0.0054 C   0  0  0  0  0  0  0  0  0  0  0  0
   -5.8633   -4.2877    0.0221 C   0  0  0  0  0  0  0  0  0  0  0  0
    3.9603    0.6925    0.1026 C   0  0  0  0  0  0  0  0  0  0  0  0
   10.1842    2.7821   -0.0323 C   0  0  0  0  0  0  0  0  0  0  0  0
   11.3428    0.7712    0.4153 C   0  0  0  0  0  0  0  0  0  0  0  0
    6.3689    0.6902    0.1829 C   0  0  0  0  0  0  0  0  0  0  0  0
   -2.2411    0.3645    0.0378 C   0  0  0  0  0  0  0  0  0  0  0  0
  2  1  2  0
  3  4  2  0
  4  1  1  0
  5  2  1  0
  6  8  2  0
  7 19  1  0
  8  9  1  0
  9 11  1  0
 10  6  1  0
 11  2  1  0
 12 24  1  0
 13  8  1  0
 14 15  1  0
 15 13  2  0
 16  6  1  0
 17 23  1  0
 19 26  1  0
 20  7  1  0
 21  7  1  0
 22  4  1  0
 23 14  1  0
 24 20  1  0
 25 21  1  0
 26 17  1  0
 27 16  1  0
  5  3  1  0
 10 14  2  0
 12 25  1  0
M  END
>  <Name>  (71) 
STOCK6S-93321

>  <id>  (71) 
STOCK6S-93321

>  <saltdata>  (71) 
HCL

>  <index>  (71) 
SCD

>  <donors>  (71) 
1

>  <acceptors>  (71) 
8

>  <rotatable>  (71) 
9

>  <clogp>  (71) 
0.925

>  <rings>  (71) 
3

>  <tpsa>  (71) 
81.88

>  <iupac_name>  (71) 
N-(3-methoxy-4-((3-methyl-1,2,4-oxadiazol-5-yl)methoxy)benzyl)-2-morpholinoethanamine hydrochloride

>  <Num_H_Acceptors_Lipinski>  (71) 
8

>  <Num_H_Donors_Lipinski>  (71) 
1

>  <Molecular_Weight>  (71) 
398.88438

>  <ALogP>  (71) 
1.045

>  <Num_RotatableBonds>  (71) 
9

>  <Molecular_PolarSurfaceArea>  (71) 
81.88

>  <Num_H_Acceptors>  (71) 
7

>  <Num_H_Donors>  (71) 
1

>  <ADMET_Solubility>  (71) 
-1.931

>  <ADMET_Solubility_Level>  (71) 
4

>  <ADMET_Unknown_AlogP98>  (71) 
0

>  <ADMET_BBB>  (71) 
-1.184

>  <ADMET_BBB_Level>  (71) 
3

>  <ADMET_EXT_CYP2D6>  (71) 
-4.57645486278555

>  <ADMET_EXT_CYP2D6#Prediction>  (71) 
false

>  <ADMET_EXT_CYP2D6_Applicability>  (71) 
OPS PC13 out of range. Value: 3.1721. Training min, max, SD, explained variance: -3.1712, 3.1497, 1.329, 0.0231.

>  <ADMET_EXT_CYP2D6_Applicability#MD>  (71) 
24.4167908376447

>  <ADMET_EXT_CYP2D6_Applicability#MDpvalue>  (71) 
4.91351117296794e-17

>  <ADMET_EXT_Hepatotoxic>  (71) 
-7.24578293320155

>  <ADMET_EXT_Hepatotoxic#Prediction>  (71) 
false

>  <ADMET_EXT_Hepatotoxic_Applicability>  (71) 
All properties and OPS components are within expected ranges.

>  <ADMET_EXT_Hepatotoxic_Applicability#MD>  (71) 
14.7650244670267

>  <ADMET_EXT_Hepatotoxic_Applicability#MDpvalue>  (71) 
1.21809399029532e-10

>  <ADMET_Absorption_Level>  (71) 
0

>  <ADMET_EXT_PPB>  (71) 
-1.59635034837278

>  <ADMET_EXT_PPB#Prediction>  (71) 
true

>  <ADMET_EXT_PPB_Applicability>  (71) 
All properties and OPS components are within expected ranges.

>  <ADMET_EXT_PPB_Applicability#MD>  (71) 
15.342247425018

>  <ADMET_EXT_PPB_Applicability#MDpvalue>  (71) 
9.48916080658208e-08

>  <ADMET_AlogP98>  (71) 
0.663

>  <ADMET_PSA_2D>  (71) 
78.029

$$$$
STOCK6S-95788
     RDKit          3D

 29 32  0  0  0  0  0  0  0  0999 V2000
    7.2110   -6.0474   -0.0129 C   0  0  0  0  0  0  0  0  0  0  0  0
    7.0896   -4.7227    0.0825 C   0  0  0  0  0  0  0  0  0  0  0  0
    8.5674   -6.7707   -0.0740 C   0  0  0  0  0  0  0  0  0  0  0  0
    4.6308   -4.9287    0.0400 C   0  0  0  0  0  0  0  0  0  0  0  0
    9.9050   -6.1534    0.0036 N   0  0  0  0  0  0  0  0  0  0  0  0
    5.7978   -4.1044    0.1137 C   0  0  0  0  0  0  0  0  0  0  0  0
    6.0552   -6.8149   -0.0842 O   0  0  0  0  0  0  0  0  0  0  0  0
   12.5328   -5.0231   -0.0318 N   0  0  0  0  0  0  0  0  0  0  0  0
    4.7844   -6.2507   -0.0553 C   0  0  0  0  0  0  0  0  0  0  0  0
   13.7922   -4.4198   -0.0218 C   0  0  0  0  0  0  0  0  0  0  0  0
    3.3710   -4.3103    0.0682 O   0  0  0  0  0  0  0  0  0  0  0  0
   13.8889   -3.1870   -0.3346 N   0  0  0  0  0  0  0  0  0  0  0  0
   10.1401   -4.7439    0.2659 C   0  0  0  0  0  0  0  0  0  0  0  0
   11.0577   -7.0112   -0.2012 C   0  0  0  0  0  0  0  0  0  0  0  0
   11.4104   -4.2435   -0.4322 C   0  0  0  0  0  0  0  0  0  0  0  0
    8.5327   -7.9902   -0.2728 O   0  0  0  0  0  0  0  0  0  0  0  0
   12.3560   -6.3904    0.4071 C   0  0  0  0  0  0  0  0  0  0  0  0
    5.6936   -2.8763    0.1932 O   0  0  0  0  0  0  0  0  0  0  0  0
    2.2854   -5.2351   -0.0055 C   0  0  0  0  0  0  0  0  0  0  0  0
    1.0081   -4.4410   -0.0018 C   0  0  0  0  0  0  0  0  0  0  0  0
   14.9839   -5.1859    0.3475 C   0  0  0  0  0  0  0  0  0  0  0  0
   15.1275   -2.5216   -0.3369 C   0  0  0  0  0  0  0  0  0  0  0  0
    1.0593   -3.1092    0.0226 C   0  0  0  0  0  0  0  0  0  0  0  0
   -0.2882   -5.1224   -0.0259 C   0  0  0  0  0  0  0  0  0  0  0  0
   16.1680   -4.5809    0.3509 C   0  0  0  0  0  0  0  0  0  0  0  0
   16.2426   -3.1711   -0.0103 C   0  0  0  0  0  0  0  0  0  0  0  0
   -1.4146   -4.4098   -0.0230 C   0  0  0  0  0  0  0  0  0  0  0  0
   -0.1785   -2.3253    0.0251 C   0  0  0  0  0  0  0  0  0  0  0  0
   -1.3575   -2.9446    0.0034 C   0  0  0  0  0  0  0  0  0  0  0  0
  2  1  2  0
  3  1  1  0
  4  9  2  0
  5  3  1  0
  6  2  1  0
  7  1  1  0
  8 17  1  0
  9  7  1  0
 10  8  1  0
 11  4  1  0
 12 10  2  0
 13  5  1  0
 14  5  1  0
 15 13  1  0
 16  3  2  0
 17 14  1  0
 18  6  2  0
 19 11  1  0
 20 19  1  0
 21 10  1  0
 22 12  1  0
 23 20  2  0
 24 20  1  0
 25 21  2  0
 26 25  1  0
 27 24  2  0
 28 23  1  0
 29 27  1  0
  4  6  1  0
 15  8  1  0
 29 28  2  0
 22 26  2  0
M  END
>  <Name>  (72) 
STOCK6S-95788

>  <id>  (72) 
STOCK6S-95788

>  <index>  (72) 
SCD

>  <donors>  (72) 
0

>  <acceptors>  (72) 
7

>  <rotatable>  (72) 
6

>  <clogp>  (72) 
1.548

>  <rings>  (72) 
4

>  <tpsa>  (72) 
75.88

>  <iupac_name>  (72) 
5-(benzyloxy)-2-(4-(pyridin-2-yl)piperazine-1-carbonyl)-4H-pyran-4-one

>  <Num_H_Acceptors_Lipinski>  (72) 
7

>  <Num_H_Donors_Lipinski>  (72) 
0

>  <Molecular_Weight>  (72) 
391.41984

>  <ALogP>  (72) 
1.735

>  <Num_RotatableBonds>  (72) 
5

>  <Molecular_PolarSurfaceArea>  (72) 
71.97

>  <Num_H_Acceptors>  (72) 
6

>  <Num_H_Donors>  (72) 
0

>  <ADMET_Solubility>  (72) 
-2.903

>  <ADMET_Solubility_Level>  (72) 
3

>  <ADMET_Unknown_AlogP98>  (72) 
0

>  <ADMET_BBB>  (72) 
-0.732

>  <ADMET_BBB_Level>  (72) 
3

>  <ADMET_EXT_CYP2D6>  (72) 
-4.44294615422337

>  <ADMET_EXT_CYP2D6#Prediction>  (72) 
false

>  <ADMET_EXT_CYP2D6_Applicability>  (72) 
All properties and OPS components are within expected ranges.

>  <ADMET_EXT_CYP2D6_Applicability#MD>  (72) 
13.2058422476105

>  <ADMET_EXT_CYP2D6_Applicability#MDpvalue>  (72) 
0.000186297271008603

>  <ADMET_EXT_Hepatotoxic>  (72) 
-10.6812489058388

>  <ADMET_EXT_Hepatotoxic#Prediction>  (72) 
false

>  <ADMET_EXT_Hepatotoxic_Applicability>  (72) 
All properties and OPS components are within expected ranges.

>  <ADMET_EXT_Hepatotoxic_Applicability#MD>  (72) 
11.8854511564968

>  <ADMET_EXT_Hepatotoxic_Applicability#MDpvalue>  (72) 
0.000256921151092319

>  <ADMET_Absorption_Level>  (72) 
0

>  <ADMET_EXT_PPB>  (72) 
-0.0941428644418055

>  <ADMET_EXT_PPB#Prediction>  (72) 
true

>  <ADMET_EXT_PPB_Applicability>  (72) 
All properties and OPS components are within expected ranges.

>  <ADMET_EXT_PPB_Applicability#MD>  (72) 
13.8150650495307

>  <ADMET_EXT_PPB_Applicability#MDpvalue>  (72) 
0.000236961224564195

>  <ADMET_AlogP98>  (72) 
1.735

>  <ADMET_PSA_2D>  (72) 
70.427

$$$$
STOCK6S-95999
     RDKit          3D

 29 31  0  0  0  0  0  0  0  0999 V2000
   -3.4568   -2.8914    0.0678 C   0  0  0  0  0  0  0  0  0  0  0  0
   -4.8785   -3.0789    0.1289 N   0  0  0  0  0  0  0  0  0  0  0  0
   -3.1897   -1.4275   -0.1101 C   0  0  1  0  0  0  0  0  0  0  0  0
   -5.4824   -1.7506    0.0747 C   0  0  0  0  0  0  0  0  0  0  0  0
   -4.5477   -0.8153   -0.0520 C   0  0  0  0  0  0  0  0  0  0  0  0
   -1.9104   -0.6872   -0.0568 N   0  0  0  0  0  0  0  0  0  0  0  0
   -0.6937   -1.2654   -0.0426 C   0  0  0  0  0  0  0  0  0  0  0  0
    0.5277   -0.4219   -0.0075 C   0  0  0  0  0  0  0  0  0  0  0  0
   -2.5912   -3.7708    0.1292 O   0  0  0  0  0  0  0  0  0  0  0  0
   -0.5717   -2.4923   -0.0719 O   0  0  0  0  0  0  0  0  0  0  0  0
   -5.5786   -4.4065    0.2895 C   0  0  0  0  0  0  0  0  0  0  0  0
    0.4271    0.8093    0.0118 O   0  0  0  0  0  0  0  0  0  0  0  0
    1.7392   -0.9950   -0.0068 N   0  0  0  0  0  0  0  0  0  0  0  0
   -6.8982   -1.3706    0.1609 C   0  0  0  0  0  0  0  0  0  0  0  0
    8.0024    0.9224    0.0036 C   0  0  0  0  0  0  0  0  0  0  0  0
   -4.8701    0.5985   -0.1169 C   0  0  0  0  0  0  0  0  0  0  0  0
    5.5188   -0.4042    0.0041 C   0  0  0  0  0  0  0  0  0  0  0  0
    7.9527   -0.4108   -0.0001 C   0  0  0  0  0  0  0  0  0  0  0  0
    6.7494    1.6923    0.0081 C   0  0  0  0  0  0  0  0  0  0  0  0
    6.6563   -1.1009   -0.0002 C   0  0  0  0  0  0  0  0  0  0  0  0
    5.5707    1.0647    0.0084 C   0  0  0  0  0  0  0  0  0  0  0  0
    2.9583   -0.1966    0.0155 C   0  0  0  0  0  0  0  0  0  0  0  0
    9.2390    1.6041    0.0033 O   0  0  0  0  0  0  0  0  0  0  0  0
    4.1888   -1.1494    0.0017 C   0  0  0  0  0  0  0  0  0  0  0  0
   -6.9858   -4.5154   -0.3472 C   0  0  0  0  0  0  0  0  0  0  0  0
   -4.7292   -5.6180   -0.1516 C   0  0  0  0  0  0  0  0  0  0  0  0
   10.3504    0.6901   -0.0014 C   0  0  0  0  0  0  0  0  0  0  0  0
   -7.2178   -0.0753    0.1016 C   0  0  0  0  0  0  0  0  0  0  0  0
   -6.1558    0.9561   -0.0446 C   0  0  0  0  0  0  0  0  0  0  0  0
  2  1  1  0
  3  1  1  0
  4  2  1  0
  5  3  1  0
  3  6  1  1
  7  6  1  0
  8  7  1  0
  9  1  2  0
 10  7  2  0
 11  2  1  0
 12  8  2  0
 13  8  1  0
 14  4  2  0
 15 19  2  0
 16  5  2  0
 17 24  1  0
 18 20  2  0
 19 21  1  0
 20 17  1  0
 21 17  2  0
 22 13  1  0
 23 15  1  0
 24 22  1  0
 25 11  1  0
 26 11  1  0
 27 23  1  0
 28 14  1  0
 29 16  1  0
  5  4  1  0
 28 29  2  0
 15 18  1  0
M  END
>  <Name>  (73) 
STOCK6S-95999

>  <id>  (73) 
STOCK6S-95999

>  <index>  (73) 
SCD

>  <donors>  (73) 
2

>  <acceptors>  (73) 
7

>  <rotatable>  (73) 
9

>  <clogp>  (73) 
2.668

>  <rings>  (73) 
3

>  <tpsa>  (73) 
87.74

>  <iupac_name>  (73) 
N1-(1-isopropyl-2-oxoindolin-3-yl)-N2-(4-methoxyphenethyl)oxalamide

>  <Num_H_Acceptors_Lipinski>  (73) 
7

>  <Num_H_Donors_Lipinski>  (73) 
2

>  <Molecular_Weight>  (73) 
395.4516

>  <ALogP>  (73) 
2.073

>  <Num_RotatableBonds>  (73) 
7

>  <Molecular_PolarSurfaceArea>  (73) 
87.74

>  <Num_H_Acceptors>  (73) 
4

>  <Num_H_Donors>  (73) 
2

>  <ADMET_Solubility>  (73) 
-3.151

>  <ADMET_Solubility_Level>  (73) 
3

>  <ADMET_Unknown_AlogP98>  (73) 
0

>  <ADMET_BBB>  (73) 
-0.934

>  <ADMET_BBB_Level>  (73) 
3

>  <ADMET_EXT_CYP2D6>  (73) 
-4.89253461352667

>  <ADMET_EXT_CYP2D6#Prediction>  (73) 
false

>  <ADMET_EXT_CYP2D6_Applicability>  (73) 
OPS PC6 out of range. Value: 4.3261. Training min, max, SD, explained variance: -5.674, 3.9834, 1.993, 0.0519.

>  <ADMET_EXT_CYP2D6_Applicability#MD>  (73) 
11.3082356748127

>  <ADMET_EXT_CYP2D6_Applicability#MDpvalue>  (73) 
0.0122850520197909

>  <ADMET_EXT_Hepatotoxic>  (73) 
-5.66432177833479

>  <ADMET_EXT_Hepatotoxic#Prediction>  (73) 
false

>  <ADMET_EXT_Hepatotoxic_Applicability>  (73) 
OPS PC11 out of range. Value: 4.455. Training min, max, SD, explained variance: -4.0074, 4.0205, 1.463, 0.0267.

>  <ADMET_EXT_Hepatotoxic_Applicability#MD>  (73) 
10.3367964589754

>  <ADMET_EXT_Hepatotoxic_Applicability#MDpvalue>  (73) 
0.0410205563974344

>  <ADMET_Absorption_Level>  (73) 
0

>  <ADMET_EXT_PPB>  (73) 
2.93610757667406

>  <ADMET_EXT_PPB#Prediction>  (73) 
true

>  <ADMET_EXT_PPB_Applicability>  (73) 
All properties and OPS components are within expected ranges.

>  <ADMET_EXT_PPB_Applicability#MD>  (73) 
13.6560535773937

>  <ADMET_EXT_PPB_Applicability#MDpvalue>  (73) 
0.000465694234074341

>  <ADMET_AlogP98>  (73) 
2.073

>  <ADMET_PSA_2D>  (73) 
89.805

$$$$
STOCK6S-96965
     RDKit          3D

 29 32  0  0  0  0  0  0  0  0999 V2000
   11.1610   -5.8427    0.2536 S   0  0  0  0  0  0  0  0  0  0  0  0
   12.1501   -4.5246    0.1793 C   0  0  0  0  0  0  0  0  0  0  0  0
    9.7486   -4.9982    0.0673 C   0  0  0  0  0  0  0  0  0  0  0  0
   11.4323   -3.4726    0.0126 N   0  0  0  0  0  0  0  0  0  0  0  0
   10.0250   -3.7493   -0.0527 N   0  0  0  0  0  0  0  0  0  0  0  0
    8.4543   -5.5790    0.0681 N   0  0  0  0  0  0  0  0  0  0  0  0
    2.2134   -4.7609   -0.0003 N   0  0  0  0  0  0  0  0  0  0  0  0
   -0.3696   -3.5386   -0.0272 N   0  0  0  0  0  0  0  0  0  0  0  0
    3.4875   -5.3846    0.0580 C   0  0  0  0  0  0  0  0  0  0  0  0
   -1.6489   -2.9437   -0.0127 C   0  0  0  0  0  0  0  0  0  0  0  0
    7.3294   -4.8595   -0.0553 C   0  0  0  0  0  0  0  0  0  0  0  0
   13.6561   -4.5513    0.3076 C   0  0  1  0  0  0  0  0  0  0  0  0
   -2.7899   -3.7169   -0.3190 N   0  0  0  0  0  0  0  0  0  0  0  0
    2.0903   -3.3572   -0.3098 C   0  0  0  0  0  0  0  0  0  0  0  0
    1.0300   -5.5503    0.2646 C   0  0  0  0  0  0  0  0  0  0  0  0
   -0.2318   -4.9241   -0.3960 C   0  0  0  0  0  0  0  0  0  0  0  0
    0.7975   -2.7617    0.3271 C   0  0  0  0  0  0  0  0  0  0  0  0
    3.5525   -6.5906    0.3215 O   0  0  0  0  0  0  0  0  0  0  0  0
   14.2822   -5.7621   -0.1326 O   0  0  0  0  0  0  0  0  0  0  0  0
    4.7784   -4.5966   -0.1351 C   0  0  0  0  0  0  0  0  0  0  0  0
    7.3786   -3.6309   -0.1842 O   0  0  0  0  0  0  0  0  0  0  0  0
    5.9857   -5.5738    0.0010 C   0  0  0  0  0  0  0  0  0  0  0  0
   -1.7797   -1.6499    0.2914 C   0  0  0  0  0  0  0  0  0  0  0  0
   -3.9607   -3.2105   -0.3138 C   0  0  0  0  0  0  0  0  0  0  0  0
   15.7037   -5.4133   -0.2580 C   0  0  0  0  0  0  0  0  0  0  0  0
   14.4063   -3.4179   -0.3448 C   0  0  0  0  0  0  0  0  0  0  0  0
   15.7866   -3.8931    0.0753 C   0  0  0  0  0  0  0  0  0  0  0  0
   -3.1056   -1.0437    0.3028 C   0  0  0  0  0  0  0  0  0  0  0  0
   -4.1605   -1.7967    0.0109 C   0  0  0  0  0  0  0  0  0  0  0  0
  2  1  1  0
  3  1  1  0
  4  2  2  0
  5  3  2  0
  6  3  1  0
  7  9  1  0
  8 16  1  0
  9 20  1  0
 10  8  1  0
 11  6  1  0
 12  2  1  6
 13 10  2  0
 14  7  1  0
 15  7  1  0
 16 15  1  0
 17 14  1  0
 18  9  2  0
 19 12  1  0
 20 22  1  0
 21 11  2  0
 22 11  1  0
 23 10  1  0
 24 13  1  0
 25 19  1  0
 26 12  1  0
 27 26  1  0
 28 23  2  0
 29 28  1  0
  4  5  1  0
 25 27  1  0
  8 17  1  0
 29 24  2  0
M  END
>  <Name>  (74) 
STOCK6S-96965

>  <id>  (74) 
STOCK6S-96965

>  <index>  (74) 
SCD

>  <donors>  (74) 
1

>  <acceptors>  (74) 
9

>  <rotatable>  (74) 
8

>  <clogp>  (74) 
0.487

>  <rings>  (74) 
4

>  <tpsa>  (74) 
100.55

>  <iupac_name>  (74) 
4-oxo-4-(4-(pyridin-2-yl)piperazin-1-yl)-N-(5-(tetrahydrofuran-2-yl)-1,3,4-thiadiazol-2-yl)butanamide

>  <Num_H_Acceptors_Lipinski>  (74) 
9

>  <Num_H_Donors_Lipinski>  (74) 
1

>  <Molecular_Weight>  (74) 
416.49726

>  <ALogP>  (74) 
0.665

>  <Num_RotatableBonds>  (74) 
6

>  <Molecular_PolarSurfaceArea>  (74) 
128.79

>  <Num_H_Acceptors>  (74) 
7

>  <Num_H_Donors>  (74) 
1

>  <ADMET_Solubility>  (74) 
-2.49

>  <ADMET_Solubility_Level>  (74) 
3

>  <ADMET_Unknown_AlogP98>  (74) 
0

>  <ADMET_BBB>  (74) 
-1.336

>  <ADMET_BBB_Level>  (74) 
3

>  <ADMET_EXT_CYP2D6>  (74) 
-9.56780721402113

>  <ADMET_EXT_CYP2D6#Prediction>  (74) 
false

>  <ADMET_EXT_CYP2D6_Applicability>  (74) 
All properties and OPS components are within expected ranges.

>  <ADMET_EXT_CYP2D6_Applicability#MD>  (74) 
12.7073199765692

>  <ADMET_EXT_CYP2D6_Applicability#MDpvalue>  (74) 
0.000604489792038538

>  <ADMET_EXT_Hepatotoxic>  (74) 
-6.22571191405501

>  <ADMET_EXT_Hepatotoxic#Prediction>  (74) 
false

>  <ADMET_EXT_Hepatotoxic_Applicability>  (74) 
All properties and OPS components are within expected ranges.

>  <ADMET_EXT_Hepatotoxic_Applicability#MD>  (74) 
11.6784099298633

>  <ADMET_EXT_Hepatotoxic_Applicability#MDpvalue>  (74) 
0.000576392992093877

>  <ADMET_Absorption_Level>  (74) 
0

>  <ADMET_EXT_PPB>  (74) 
0.99269808437467

>  <ADMET_EXT_PPB#Prediction>  (74) 
true

>  <ADMET_EXT_PPB_Applicability>  (74) 
All properties and OPS components are within expected ranges.

>  <ADMET_EXT_PPB_Applicability#MD>  (74) 
17.9964218968208

>  <ADMET_EXT_PPB_Applicability#MDpvalue>  (74) 
8.75848401513427e-16

>  <ADMET_AlogP98>  (74) 
1.131

>  <ADMET_PSA_2D>  (74) 
96.829

$$$$
STOCK6S-97065
     RDKit          3D

 28 31  0  0  0  0  0  0  0  0999 V2000
    5.3452   -8.5809   -0.0255 C   0  0  0  0  0  0  0  0  0  0  0  0
    1.3846   -3.4800    0.0143 N   0  0  0  0  0  0  0  0  0  0  0  0
    1.6698   -6.3184    0.0264 N   0  0  0  0  0  0  0  0  0  0  0  0
    4.1801   -7.9040   -0.0474 N   0  0  0  0  0  0  0  0  0  0  0  0
    2.8695   -8.5045   -0.0152 C   0  0  0  0  0  0  0  0  0  0  0  0
    1.2505   -2.0863    0.0214 C   0  0  0  0  0  0  0  0  0  0  0  0
    1.7333   -7.7666    0.0257 C   0  0  0  0  0  0  0  0  0  0  0  0
    6.6094   -7.8530   -0.0408 C   0  0  0  0  0  0  0  0  0  0  0  0
    9.0299   -7.8434   -0.0046 C   0  0  0  0  0  0  0  0  0  0  0  0
    7.7485   -8.5392    0.0008 C   0  0  0  0  0  0  0  0  0  0  0  0
    9.0620   -6.5094   -0.0466 C   0  0  0  0  0  0  0  0  0  0  0  0
    0.3039   -4.3086   -0.4501 C   0  0  0  0  0  0  0  0  0  0  0  0
    2.6093   -4.0735    0.4735 C   0  0  0  0  0  0  0  0  0  0  0  0
    0.3700   -5.7091    0.2068 C   0  0  0  0  0  0  0  0  0  0  0  0
    2.8207   -5.4620   -0.1755 C   0  0  0  0  0  0  0  0  0  0  0  0
   10.1861   -8.5690    0.0183 O   0  0  0  0  0  0  0  0  0  0  0  0
    5.3923   -9.8140    0.0252 O   0  0  0  0  0  0  0  0  0  0  0  0
   10.2560   -5.8451   -0.0270 O   0  0  0  0  0  0  0  0  0  0  0  0
    2.1867   -1.3829    0.4166 O   0  0  0  0  0  0  0  0  0  0  0  0
    6.6360   -6.3900   -0.0926 C   0  0  0  0  0  0  0  0  0  0  0  0
    7.8050   -5.7494   -0.0952 C   0  0  0  0  0  0  0  0  0  0  0  0
   -0.0300   -1.4405   -0.4331 C   0  0  0  0  0  0  0  0  0  0  0  0
    2.7466   -9.9795   -0.0088 C   0  0  0  0  0  0  0  0  0  0  0  0
    0.4334   -8.4661    0.0776 C   0  0  0  0  0  0  0  0  0  0  0  0
   11.4100   -7.9546   -0.2637 C   0  0  0  0  0  0  0  0  0  0  0  0
   11.4367   -6.5260    0.2998 C   0  0  0  0  0  0  0  0  0  0  0  0
    1.5643  -10.5826    0.0356 C   0  0  0  0  0  0  0  0  0  0  0  0
    0.3559   -9.7925    0.0825 C   0  0  0  0  0  0  0  0  0  0  0  0
  2 13  1  0
  3  7  1  0
  4  1  1  0
  5  4  1  0
  6  2  1  0
  7  5  1  0
  8  1  1  0
  9 10  2  0
 10  8  1  0
 11 21  2  0
 12 14  1  0
 13 15  1  0
 14  3  1  0
 15  3  1  0
 16  9  1  0
 17  1  2  0
 18 11  1  0
 19  6  2  0
 20  8  2  0
 21 20  1  0
 22  6  1  0
 23  5  2  0
 24  7  2  0
 25 16  1  0
 26 18  1  0
 27 23  1  0
 28 27  2  0
 11  9  1  0
 24 28  1  0
 25 26  1  0
 12  2  1  0
M  END
>  <Name>  (75) 
STOCK6S-97065

>  <id>  (75) 
STOCK6S-97065

>  <index>  (75) 
SC

>  <donors>  (75) 
1

>  <acceptors>  (75) 
7

>  <rotatable>  (75) 
5

>  <clogp>  (75) 
1.832

>  <rings>  (75) 
4

>  <tpsa>  (75) 
71.11

>  <iupac_name>  (75) 
N-(2-(4-acetylpiperazin-1-yl)phenyl)-2,3-dihydrobenzo[b][1,4]dioxine-6-carboxamide

>  <Num_H_Acceptors_Lipinski>  (75) 
7

>  <Num_H_Donors_Lipinski>  (75) 
1

>  <Molecular_Weight>  (75) 
381.42502

>  <ALogP>  (75) 
1.779

>  <Num_RotatableBonds>  (75) 
3

>  <Molecular_PolarSurfaceArea>  (75) 
71.11

>  <Num_H_Acceptors>  (75) 
5

>  <Num_H_Donors>  (75) 
1

>  <ADMET_Solubility>  (75) 
-3.349

>  <ADMET_Solubility_Level>  (75) 
3

>  <ADMET_Unknown_AlogP98>  (75) 
0

>  <ADMET_BBB>  (75) 
-0.743

>  <ADMET_BBB_Level>  (75) 
3

>  <ADMET_EXT_CYP2D6>  (75) 
-14.6105308134648

>  <ADMET_EXT_CYP2D6#Prediction>  (75) 
false

>  <ADMET_EXT_CYP2D6_Applicability>  (75) 
All properties and OPS components are within expected ranges.

>  <ADMET_EXT_CYP2D6_Applicability#MD>  (75) 
13.9466251771856

>  <ADMET_EXT_CYP2D6_Applicability#MDpvalue>  (75) 
3.01766604214734e-05

>  <ADMET_EXT_Hepatotoxic>  (75) 
-5.37683338433146

>  <ADMET_EXT_Hepatotoxic#Prediction>  (75) 
false

>  <ADMET_EXT_Hepatotoxic_Applicability>  (75) 
All properties and OPS components are within expected ranges.

>  <ADMET_EXT_Hepatotoxic_Applicability#MD>  (75) 
11.4265376833885

>  <ADMET_EXT_Hepatotoxic_Applicability#MDpvalue>  (75) 
0.00146323260218381

>  <ADMET_Absorption_Level>  (75) 
0

>  <ADMET_EXT_PPB>  (75) 
7.10995763557213

>  <ADMET_EXT_PPB#Prediction>  (75) 
true

>  <ADMET_EXT_PPB_Applicability>  (75) 
All properties and OPS components are within expected ranges.

>  <ADMET_EXT_PPB_Applicability#MD>  (75) 
13.3522125322866

>  <ADMET_EXT_PPB_Applicability#MDpvalue>  (75) 
0.00156673982679951

>  <ADMET_AlogP98>  (75) 
1.779

>  <ADMET_PSA_2D>  (75) 
71.976

$$$$
STOCK6S-99079
     RDKit          3D

 23 25  0  0  0  0  0  0  0  0999 V2000
    9.5324   -5.3877    0.0002 N   0  0  0  0  0  0  0  0  0  0  0  0
   10.3277   -6.3742    0.0000 C   0  0  0  0  0  0  0  0  0  0  0  0
    8.2481   -5.9461    0.0002 C   0  0  0  0  0  0  0  0  0  0  0  0
    8.3075   -7.2196    0.0001 N   0  0  0  0  0  0  0  0  0  0  0  0
    9.6063   -7.5621    0.0000 N   0  0  0  0  0  0  0  0  0  0  0  0
   11.7914   -6.2761   -0.0001 C   0  0  0  0  0  0  0  0  0  0  0  0
    6.9729   -5.1253    0.0003 C   0  0  0  0  0  0  0  0  0  0  0  0
    5.7128   -5.9737    0.0002 C   0  0  0  0  0  0  0  0  0  0  0  0
   13.7205   -4.8796   -0.0001 N   0  0  0  0  0  0  0  0  0  0  0  0
    5.7773   -7.2080    0.0000 O   0  0  0  0  0  0  0  0  0  0  0  0
    4.5247   -5.3644    0.0002 N   0  0  0  0  0  0  0  0  0  0  0  0
   12.4481   -4.9665    0.0000 C   0  0  0  0  0  0  0  0  0  0  0  0
    3.2856   -6.1073    0.0001 C   0  0  0  0  0  0  0  0  0  0  0  0
   12.5360   -7.3779   -0.0003 C   0  0  0  0  0  0  0  0  0  0  0  0
    0.7589   -5.7673    0.0000 C   0  0  0  0  0  0  0  0  0  0  0  0
   14.5341   -6.0308   -0.0003 C   0  0  0  0  0  0  0  0  0  0  0  0
    2.1140   -5.0908    0.0003 C   0  0  0  0  0  0  0  0  0  0  0  0
   -0.4561   -4.9416    0.0002 C   0  0  0  0  0  0  0  0  0  0  0  0
    0.6547   -7.0965   -0.0003 C   0  0  0  0  0  0  0  0  0  0  0  0
   13.9876   -7.2458   -0.0004 C   0  0  0  0  0  0  0  0  0  0  0  0
   -0.6726   -7.7281   -0.0006 C   0  0  0  0  0  0  0  0  0  0  0  0
   -1.6583   -5.5155    0.0000 C   0  0  0  0  0  0  0  0  0  0  0  0
   -1.7721   -6.9750   -0.0004 C   0  0  0  0  0  0  0  0  0  0  0  0
  2  1  2  0
  3  1  1  0
  4  3  2  0
  5  2  1  0
  6  2  1  0
  7  3  1  0
  8  7  1  0
  9 12  2  0
 10  8  2  0
 11  8  1  0
 12  6  1  0
 13 11  1  0
 14  6  2  0
 15 17  1  0
 16 20  2  0
 17 13  1  0
 18 15  2  0
 19 15  1  0
 20 14  1  0
 21 19  2  0
 22 18  1  0
 23 21  1  0
  4  5  1  0
  9 16  1  0
 22 23  2  0
M  END
>  <Name>  (76) 
STOCK6S-99079

>  <id>  (76) 
STOCK6S-99079

>  <index>  (76) 
SCD

>  <donors>  (76) 
2

>  <acceptors>  (76) 
6

>  <rotatable>  (76) 
7

>  <clogp>  (76) 
1.094

>  <rings>  (76) 
3

>  <tpsa>  (76) 
83.5600000000002

>  <iupac_name>  (76) 
N-phenethyl-2-(5-(pyridin-3-yl)-1H-1,2,4-triazol-3-yl)acetamide

>  <Num_H_Acceptors_Lipinski>  (76) 
6

>  <Num_H_Donors_Lipinski>  (76) 
2

>  <Molecular_Weight>  (76) 
307.34978

>  <ALogP>  (76) 
1.613

>  <Num_RotatableBonds>  (76) 
6

>  <Molecular_PolarSurfaceArea>  (76) 
83.56

>  <Num_H_Acceptors>  (76) 
4

>  <Num_H_Donors>  (76) 
2

>  <ADMET_Solubility>  (76) 
-2.718

>  <ADMET_Solubility_Level>  (76) 
3

>  <ADMET_Unknown_AlogP98>  (76) 
0

>  <ADMET_BBB>  (76) 
-0.905

>  <ADMET_BBB_Level>  (76) 
3

>  <ADMET_EXT_CYP2D6>  (76) 
-8.72989201990425

>  <ADMET_EXT_CYP2D6#Prediction>  (76) 
false

>  <ADMET_EXT_CYP2D6_Applicability>  (76) 
OPS PC8 out of range. Value: 5.505. Training min, max, SD, explained variance: -4.2516, 4.6021, 1.692, 0.0374.
Unknown FCFP_2 feature: 1747267175: [*][c]1:[*]:[*]:[nH]:n:1
Unknown FCFP_2 feature: 262592487: [*][c]1:[*]:[*]:n:[nH]:1

>  <ADMET_EXT_CYP2D6_Applicability#MD>  (76) 
10.863650490577

>  <ADMET_EXT_CYP2D6_Applicability#MDpvalue>  (76) 
0.0284229687018454

>  <ADMET_EXT_Hepatotoxic>  (76) 
-5.07719551643856

>  <ADMET_EXT_Hepatotoxic#Prediction>  (76) 
false

>  <ADMET_EXT_Hepatotoxic_Applicability>  (76) 
All properties and OPS components are within expected ranges.

>  <ADMET_EXT_Hepatotoxic_Applicability#MD>  (76) 
9.92231803983172

>  <ADMET_EXT_Hepatotoxic_Applicability#MDpvalue>  (76) 
0.10610508418604

>  <ADMET_Absorption_Level>  (76) 
0

>  <ADMET_EXT_PPB>  (76) 
0.0958085224149951

>  <ADMET_EXT_PPB#Prediction>  (76) 
true

>  <ADMET_EXT_PPB_Applicability>  (76) 
All properties and OPS components are within expected ranges.
Unknown FCFP_2 feature: 690540968: [*]:[c](:[*])[c]1:[nH]:[*]:[*]:n:1

>  <ADMET_EXT_PPB_Applicability#MD>  (76) 
12.0757883730956

>  <ADMET_EXT_PPB_Applicability#MDpvalue>  (76) 
0.0797076586874703

>  <ADMET_AlogP98>  (76) 
1.613

>  <ADMET_PSA_2D>  (76) 
78.949

$$$$
STOCK7S-04430
     RDKit          3D

 27 29  0  0  0  0  0  0  0  0999 V2000
   -0.8038   -1.3884   -0.0051 C   0  0  0  0  0  0  0  0  0  0  0  0
   -1.9801   -0.8915    0.0010 N   0  0  0  0  0  0  0  0  0  0  0  0
   -2.8277   -2.0093   -0.0030 C   0  0  0  0  0  0  0  0  0  0  0  0
   -2.1361   -3.0778   -0.0111 N   0  0  0  0  0  0  0  0  0  0  0  0
   -0.8732   -2.7444   -0.0134 O   0  0  0  0  0  0  0  0  0  0  0  0
   -4.9995   -0.6364    0.0164 C   0  0  0  0  0  0  0  0  0  0  0  0
   -4.3572   -2.0104    0.0054 C   0  0  0  0  0  0  0  0  0  0  0  0
    0.4666   -0.6153   -0.0029 C   0  0  0  0  0  0  0  0  0  0  0  0
   -6.4148   -0.5260    0.0659 N   0  0  0  0  0  0  0  0  0  0  0  0
   -4.3024    0.3835   -0.0121 O   0  0  0  0  0  0  0  0  0  0  0  0
    0.4381    0.6183    0.0034 O   0  0  0  0  0  0  0  0  0  0  0  0
    1.6474   -1.2566   -0.0066 N   0  0  0  0  0  0  0  0  0  0  0  0
   -9.2032   -0.3138    0.2941 O   0  0  0  0  0  0  0  0  0  0  0  0
    7.9600    0.5018    0.0005 C   0  0  0  0  0  0  0  0  0  0  0  0
    5.4560   -0.7905   -0.0013 C   0  0  0  0  0  0  0  0  0  0  0  0
    7.8919   -0.8312    0.0000 C   0  0  0  0  0  0  0  0  0  0  0  0
    6.7186    1.2877    0.0001 C   0  0  0  0  0  0  0  0  0  0  0  0
    6.5835   -1.5046   -0.0009 C   0  0  0  0  0  0  0  0  0  0  0  0
    5.5314    0.6770   -0.0008 C   0  0  0  0  0  0  0  0  0  0  0  0
    2.9056   -0.5157   -0.0037 C   0  0  0  0  0  0  0  0  0  0  0  0
   -7.0269    0.7921    0.1310 C   0  0  0  0  0  0  0  0  0  0  0  0
   -7.2256   -1.7359    0.1502 C   0  0  0  0  0  0  0  0  0  0  0  0
    9.2049    1.1693    0.0012 O   0  0  0  0  0  0  0  0  0  0  0  0
   -8.6869   -1.5028   -0.2962 C   0  0  0  0  0  0  0  0  0  0  0  0
   -8.5106    0.7756   -0.3115 C   0  0  0  0  0  0  0  0  0  0  0  0
    4.1080   -1.5090   -0.0027 C   0  0  0  0  0  0  0  0  0  0  0  0
   10.3064    0.2445    0.0013 C   0  0  0  0  0  0  0  0  0  0  0  0
  2  1  2  0
  3  2  1  0
  4  5  1  0
  5  1  1  0
  6  7  1  0
  7  3  1  0
  8  1  1  0
  9  6  1  0
 10  6  2  0
 11  8  2  0
 12  8  1  0
 13 24  1  0
 14 17  2  0
 15 26  1  0
 16 18  2  0
 17 19  1  0
 18 15  1  0
 19 15  2  0
 20 12  1  0
 21  9  1  0
 22  9  1  0
 23 14  1  0
 24 22  1  0
 25 21  1  0
 26 20  1  0
 27 23  1  0
  4  3  2  0
 14 16  1  0
 13 25  1  0
M  END
>  <Name>  (77) 
STOCK7S-04430

>  <id>  (77) 
STOCK7S-04430

>  <index>  (77) 
SC

>  <donors>  (77) 
1

>  <acceptors>  (77) 
9

>  <rotatable>  (77) 
9

>  <clogp>  (77) 
0.573

>  <rings>  (77) 
3

>  <tpsa>  (77) 
106.79

>  <iupac_name>  (77) 
N-(4-methoxyphenethyl)-3-(2-morpholino-2-oxoethyl)-1,2,4-oxadiazole-5-carboxamide

>  <Num_H_Acceptors_Lipinski>  (77) 
9

>  <Num_H_Donors_Lipinski>  (77) 
1

>  <Molecular_Weight>  (77) 
374.39108

>  <ALogP>  (77) 
0.341

>  <Num_RotatableBonds>  (77) 
7

>  <Molecular_PolarSurfaceArea>  (77) 
106.79

>  <Num_H_Acceptors>  (77) 
6

>  <Num_H_Donors>  (77) 
1

>  <ADMET_Solubility>  (77) 
-1.581

>  <ADMET_Solubility_Level>  (77) 
4

>  <ADMET_Unknown_AlogP98>  (77) 
0

>  <ADMET_BBB>  (77) 
-1.689

>  <ADMET_BBB_Level>  (77) 
3

>  <ADMET_EXT_CYP2D6>  (77) 
-7.63731972606522

>  <ADMET_EXT_CYP2D6#Prediction>  (77) 
false

>  <ADMET_EXT_CYP2D6_Applicability>  (77) 
OPS PC6 out of range. Value: 4.5252. Training min, max, SD, explained variance: -5.674, 3.9834, 1.993, 0.0519.

>  <ADMET_EXT_CYP2D6_Applicability#MD>  (77) 
14.2843343766016

>  <ADMET_EXT_CYP2D6_Applicability#MDpvalue>  (77) 
1.28675962518968e-05

>  <ADMET_EXT_Hepatotoxic>  (77) 
-6.688447122705

>  <ADMET_EXT_Hepatotoxic#Prediction>  (77) 
false

>  <ADMET_EXT_Hepatotoxic_Applicability>  (77) 
All properties and OPS components are within expected ranges.

>  <ADMET_EXT_Hepatotoxic_Applicability#MD>  (77) 
12.0333968099912

>  <ADMET_EXT_Hepatotoxic_Applicability#MDpvalue>  (77) 
0.000140996507851435

>  <ADMET_Absorption_Level>  (77) 
0

>  <ADMET_EXT_PPB>  (77) 
4.85269627932323

>  <ADMET_EXT_PPB#Prediction>  (77) 
true

>  <ADMET_EXT_PPB_Applicability>  (77) 
All properties and OPS components are within expected ranges.

>  <ADMET_EXT_PPB_Applicability#MD>  (77) 
13.087631688235

>  <ADMET_EXT_PPB_Applicability#MDpvalue>  (77) 
0.00413911414945448

>  <ADMET_AlogP98>  (77) 
0.341

>  <ADMET_PSA_2D>  (77) 
103.7

$$$$
STOCK7S-05819
     RDKit          3D

 25 27  0  0  0  0  0  0  0  0999 V2000
    6.5757   -2.1174   -0.0311 C   0  0  0  0  0  0  0  0  0  0  0  0
    6.5991   -0.7085   -0.1585 N   0  0  0  0  0  0  0  0  0  0  0  0
    5.2926   -2.8495   -0.1309 N   0  0  0  0  0  0  0  0  0  0  0  0
    7.6909   -2.7309    0.1458 N   0  0  0  0  0  0  0  0  0  0  0  0
    7.8012   -0.0178   -0.0849 C   0  0  0  0  0  0  0  0  0  0  0  0
    9.0144   -0.7633    0.1046 C   0  0  0  0  0  0  0  0  0  0  0  0
    8.9385   -2.0799    0.2146 C   0  0  0  0  0  0  0  0  0  0  0  0
    5.4066    0.0319   -0.3834 C   0  0  0  0  0  0  0  0  0  0  0  0
    4.2440   -0.6744    0.1250 N   0  0  0  0  0  0  0  0  0  0  0  0
    4.1523   -2.0278   -0.4593 C   0  0  0  0  0  0  0  0  0  0  0  0
    5.2393   -4.3949   -0.0918 C   0  0  0  0  0  0  0  0  0  0  0  0
    7.8301    1.2089   -0.1950 O   0  0  0  0  0  0  0  0  0  0  0  0
    3.9998   -5.4242    0.0693 C   0  0  0  0  0  0  0  0  0  0  0  0
   10.3391   -0.0483    0.1692 C   0  0  0  0  0  0  0  0  0  0  0  0
    3.0487    0.1230   -0.2440 C   0  0  0  0  0  0  0  0  0  0  0  0
   10.1862   -2.9009    0.4029 C   0  0  0  0  0  0  0  0  0  0  0  0
    2.5755   -5.2472    0.3382 O   0  0  0  0  0  0  0  0  0  0  0  0
    1.7642   -0.5428    0.2744 C   0  0  0  0  0  0  0  0  0  0  0  0
    6.4278   -4.9903   -0.2546 C   0  0  0  0  0  0  0  0  0  0  0  0
   -0.6531   -0.4292    0.2654 O   0  0  0  0  0  0  0  0  0  0  0  0
    0.5266    0.2446   -0.1862 C   0  0  0  0  0  0  0  0  0  0  0  0
    4.2755   -6.7274    0.0033 C   0  0  0  0  0  0  0  0  0  0  0  0
    1.9776   -4.0215    0.5986 C   0  0  0  0  0  0  0  0  0  0  0  0
    6.6276   -6.4241   -0.2983 C   0  0  0  0  0  0  0  0  0  0  0  0
    5.6034   -7.2489   -0.1897 C   0  0  0  0  0  0  0  0  0  0  0  0
  2  1  1  0
  3  1  1  0
  4  1  2  0
  5  2  1  0
  6  7  2  0
  7  4  1  0
  8  2  1  0
  9 10  1  0
 10  3  1  0
 11  3  1  0
 12  5  2  0
 13 11  2  0
 14  6  1  0
 15  9  1  0
 16  7  1  0
 17 13  1  0
 18 15  1  0
 19 11  1  0
 20 21  1  0
 21 18  1  0
 22 13  1  0
 23 17  1  0
 24 19  2  0
 25 24  1  0
  6  5  1  0
  9  8  1  0
 25 22  2  0
M  END
>  <Name>  (78) 
STOCK7S-05819

>  <id>  (78) 
STOCK7S-05819

>  <index>  (78) 
SCD

>  <donors>  (78) 
1

>  <acceptors>  (78) 
7

>  <rotatable>  (78) 
5

>  <clogp>  (78) 
2.518

>  <rings>  (78) 
3

>  <tpsa>  (78) 
70.83

>  <iupac_name>  (78) 
3-(3-hydroxypropyl)-1-(2-methoxyphenyl)-7,8-dimethyl-3,4-dihydro-1H-pyrimido[1,2-a][1,3,5]triazin-6(2H)-one

>  <Num_H_Acceptors_Lipinski>  (78) 
7

>  <Num_H_Donors_Lipinski>  (78) 
1

>  <Molecular_Weight>  (78) 
344.40816

>  <ALogP>  (78) 
1.625

>  <Num_RotatableBonds>  (78) 
5

>  <Molecular_PolarSurfaceArea>  (78) 
68.61

>  <Num_H_Acceptors>  (78) 
6

>  <Num_H_Donors>  (78) 
1

>  <ADMET_Solubility>  (78) 
-2.784

>  <ADMET_Solubility_Level>  (78) 
3

>  <ADMET_Unknown_AlogP98>  (78) 
0

>  <ADMET_BBB>  (78) 
-0.734

>  <ADMET_BBB_Level>  (78) 
3

>  <ADMET_EXT_CYP2D6>  (78) 
-0.904822609445734

>  <ADMET_EXT_CYP2D6#Prediction>  (78) 
false

>  <ADMET_EXT_CYP2D6_Applicability>  (78) 
OPS PC9 out of range. Value: 4.2622. Training min, max, SD, explained variance: -4.6974, 3.8454, 1.569, 0.0322.
Unknown FCFP_2 feature: -587539325: [*]OCN([*])[*]

>  <ADMET_EXT_CYP2D6_Applicability#MD>  (78) 
17.2495157846017

>  <ADMET_EXT_CYP2D6_Applicability#MDpvalue>  (78) 
5.2763561309685e-09

>  <ADMET_EXT_Hepatotoxic>  (78) 
-5.68453367084442

>  <ADMET_EXT_Hepatotoxic#Prediction>  (78) 
false

>  <ADMET_EXT_Hepatotoxic_Applicability>  (78) 
All properties and OPS components are within expected ranges.
Unknown FCFP_2 feature: -587539325: [*]OCN([*])[*]

>  <ADMET_EXT_Hepatotoxic_Applicability#MD>  (78) 
12.3920143627061

>  <ADMET_EXT_Hepatotoxic_Applicability#MDpvalue>  (78) 
3.05312728439272e-05

>  <ADMET_Absorption_Level>  (78) 
0

>  <ADMET_EXT_PPB>  (78) 
-3.62399071945482

>  <ADMET_EXT_PPB#Prediction>  (78) 
false

>  <ADMET_EXT_PPB_Applicability>  (78) 
All properties and OPS components are within expected ranges.
Unknown FCFP_2 feature: -587539325: [*]OCN([*])[*]

>  <ADMET_EXT_PPB_Applicability#MD>  (78) 
14.2848933141746

>  <ADMET_EXT_PPB_Applicability#MDpvalue>  (78) 
2.74666131455308e-05

>  <ADMET_AlogP98>  (78) 
1.625

>  <ADMET_PSA_2D>  (78) 
68.427

$$$$
STOCK7S-07361
     RDKit          3D

 24 25  0  0  0  0  0  0  0  0999 V2000
    4.5083   -5.7630    0.0003 N   0  0  0  0  0  0  0  0  0  0  0  0
    4.4714   -4.3973    0.0001 N   0  0  0  0  0  0  0  0  0  0  0  0
    3.3818   -6.4742    0.0004 C   0  0  0  0  0  0  0  0  0  0  0  0
    3.3589   -3.7623    0.0001 C   0  0  0  0  0  0  0  0  0  0  0  0
    5.7532   -6.5047    0.0003 C   0  0  0  0  0  0  0  0  0  0  0  0
    2.1056   -5.8082    0.0004 C   0  0  0  0  0  0  0  0  0  0  0  0
    2.0931   -4.4862    0.0002 C   0  0  0  0  0  0  0  0  0  0  0  0
    7.0112   -5.6763    0.0001 C   0  0  0  0  0  0  0  0  0  0  0  0
    3.3135   -2.2975   -0.0001 C   0  0  0  0  0  0  0  0  0  0  0  0
   11.9039   -6.0114   -0.0002 C   0  0  0  0  0  0  0  0  0  0  0  0
    3.4325   -7.7092    0.0005 O   0  0  0  0  0  0  0  0  0  0  0  0
   10.5601   -6.6794   -0.0001 C   0  0  0  0  0  0  0  0  0  0  0  0
    4.5430   -1.4982   -0.0002 C   0  0  0  0  0  0  0  0  0  0  0  0
    6.9735   -4.4409    0.0000 O   0  0  0  0  0  0  0  0  0  0  0  0
   11.9833   -4.7782   -0.0002 O   0  0  0  0  0  0  0  0  0  0  0  0
    8.1783   -6.3193    0.0002 N   0  0  0  0  0  0  0  0  0  0  0  0
    9.4311   -5.6248    0.0000 C   0  0  0  0  0  0  0  0  0  0  0  0
    4.4667   -0.1653   -0.0004 C   0  0  0  0  0  0  0  0  0  0  0  0
   13.0627   -6.7841   -0.0004 O   0  0  0  0  0  0  0  0  0  0  0  0
    5.6431    0.5987   -0.0005 O   0  0  0  0  0  0  0  0  0  0  0  0
    2.1260   -1.6924   -0.0001 C   0  0  0  0  0  0  0  0  0  0  0  0
    2.0374   -0.2365   -0.0002 C   0  0  0  0  0  0  0  0  0  0  0  0
    3.1493    0.4937   -0.0004 C   0  0  0  0  0  0  0  0  0  0  0  0
    5.3435    2.0040   -0.0006 C   0  0  0  0  0  0  0  0  0  0  0  0
  2  1  1  0
  3  1  1  0
  4  2  2  0
  5  1  1  0
  6  3  1  0
  7  6  2  0
  8  5  1  0
  9  4  1  0
 10 12  1  0
 11  3  2  0
 12 17  1  0
 13  9  2  0
 14  8  2  0
 15 10  2  0
 16  8  1  0
 17 16  1  0
 18 13  1  0
 19 10  1  0
 20 18  1  0
 21  9  1  0
 22 21  2  0
 23 22  1  0
 24 20  1  0
  7  4  1  0
 18 23  2  0
M  END
>  <Name>  (79) 
STOCK7S-07361

>  <id>  (79) 
STOCK7S-07361

>  <index>  (79) 
SCD

>  <donors>  (79) 
2

>  <acceptors>  (79) 
8

>  <rotatable>  (79) 
8

>  <clogp>  (79) 
-0.867

>  <rings>  (79) 
2

>  <tpsa>  (79) 
110.52

>  <iupac_name>  (79) 
3-(2-(3-(3-methoxyphenyl)-6-oxopyridazin-1(6H)-yl)acetamido)propanoic acid

>  <Num_H_Acceptors_Lipinski>  (79) 
8

>  <Num_H_Donors_Lipinski>  (79) 
2

>  <Molecular_Weight>  (79) 
331.32328

>  <ALogP>  (79) 
0.426

>  <Num_RotatableBonds>  (79) 
7

>  <Molecular_PolarSurfaceArea>  (79) 
108.3

>  <Num_H_Acceptors>  (79) 
6

>  <Num_H_Donors>  (79) 
2

>  <ADMET_Solubility>  (79) 
-1.466

>  <ADMET_Solubility_Level>  (79) 
4

>  <ADMET_Unknown_AlogP98>  (79) 
0

>  <ADMET_BBB>  (79) 
-1.749

>  <ADMET_BBB_Level>  (79) 
3

>  <ADMET_EXT_CYP2D6>  (79) 
-10.2579039565959

>  <ADMET_EXT_CYP2D6#Prediction>  (79) 
false

>  <ADMET_EXT_CYP2D6_Applicability>  (79) 
All properties and OPS components are within expected ranges.

>  <ADMET_EXT_CYP2D6_Applicability#MD>  (79) 
12.5039307374995

>  <ADMET_EXT_CYP2D6_Applicability#MDpvalue>  (79) 
0.00096410475355387

>  <ADMET_EXT_Hepatotoxic>  (79) 
-4.29197691155655

>  <ADMET_EXT_Hepatotoxic#Prediction>  (79) 
false

>  <ADMET_EXT_Hepatotoxic_Applicability>  (79) 
All properties and OPS components are within expected ranges.

>  <ADMET_EXT_Hepatotoxic_Applicability#MD>  (79) 
12.9148783861246

>  <ADMET_EXT_Hepatotoxic_Applicability#MDpvalue>  (79) 
2.73643570091129e-06

>  <ADMET_Absorption_Level>  (79) 
0

>  <ADMET_EXT_PPB>  (79) 
-4.78444800340649

>  <ADMET_EXT_PPB#Prediction>  (79) 
false

>  <ADMET_EXT_PPB_Applicability>  (79) 
All properties and OPS components are within expected ranges.

>  <ADMET_EXT_PPB_Applicability#MD>  (79) 
13.8605423205414

>  <ADMET_EXT_PPB_Applicability#MDpvalue>  (79) 
0.0001943387207542

>  <ADMET_AlogP98>  (79) 
0.426

>  <ADMET_PSA_2D>  (79) 
109.134

$$$$
STOCK7S-07898
     RDKit          3D

 32 35  0  0  0  0  0  0  0  0999 V2000
    1.9303   -2.2476    0.0416 C   0  0  0  0  0  0  0  0  0  0  0  0
    1.9326   -0.8333   -0.0238 N   0  0  0  0  0  0  0  0  0  0  0  0
    0.8202   -2.8871    0.0590 N   0  0  0  0  0  0  0  0  0  0  0  0
    0.7765   -0.1626   -0.0619 C   0  0  0  0  0  0  0  0  0  0  0  0
   -0.4726   -0.8989   -0.0446 C   0  0  0  0  0  0  0  0  0  0  0  0
   -0.4294   -2.2241    0.0133 C   0  0  0  0  0  0  0  0  0  0  0  0
   10.8576   -4.4035    0.0280 N   0  0  0  0  0  0  0  0  0  0  0  0
   12.1304   -5.0682   -0.0356 C   0  0  0  0  0  0  0  0  0  0  0  0
    3.2152   -3.0258    0.1187 C   0  0  0  0  0  0  0  0  0  0  0  0
   13.4347   -4.3451    0.0217 C   0  0  0  0  0  0  0  0  0  0  0  0
    8.2491   -3.1681    0.2380 N   0  0  0  0  0  0  0  0  0  0  0  0
   14.5544   -5.0803   -0.0344 C   0  0  0  0  0  0  0  0  0  0  0  0
    0.7661    1.0726   -0.1130 O   0  0  0  0  0  0  0  0  0  0  0  0
   10.7766   -2.9659    0.2376 C   0  0  0  0  0  0  0  0  0  0  0  0
    9.6428   -5.2230   -0.0169 C   0  0  0  0  0  0  0  0  0  0  0  0
   12.1502   -6.2976   -0.1617 O   0  0  0  0  0  0  0  0  0  0  0  0
    3.1540   -4.2554    0.2245 O   0  0  0  0  0  0  0  0  0  0  0  0
    4.4262   -2.4317    0.1028 N   0  0  0  0  0  0  0  0  0  0  0  0
    8.3665   -4.4455   -0.4777 C   0  0  0  0  0  0  0  0  0  0  0  0
    9.4055   -2.3553   -0.2109 C   0  0  0  0  0  0  0  0  0  0  0  0
   15.9259   -4.5080   -0.0047 C   0  0  0  0  0  0  0  0  0  0  0  0
   -1.7641   -0.1976   -0.0861 C   0  0  0  0  0  0  0  0  0  0  0  0
    5.6594   -3.2485    0.2488 C   0  0  0  0  0  0  0  0  0  0  0  0
    6.9607   -2.4380   -0.1226 C   0  0  0  0  0  0  0  0  0  0  0  0
   -1.6818   -2.9936    0.0318 C   0  0  0  0  0  0  0  0  0  0  0  0
   16.9758   -5.3322   -0.0405 C   0  0  0  0  0  0  0  0  0  0  0  0
   16.1466   -3.0577    0.0551 C   0  0  0  0  0  0  0  0  0  0  0  0
   -2.8994   -0.8958   -0.0678 C   0  0  0  0  0  0  0  0  0  0  0  0
   -2.8558   -2.3612   -0.0058 C   0  0  0  0  0  0  0  0  0  0  0  0
   18.3436   -4.7987   -0.0185 C   0  0  0  0  0  0  0  0  0  0  0  0
   17.3906   -2.5725    0.0728 C   0  0  0  0  0  0  0  0  0  0  0  0
   18.5417   -3.4833    0.0346 C   0  0  0  0  0  0  0  0  0  0  0  0
  2  1  1  0
  3  1  2  0
  4  2  1  0
  5  6  2  0
  6  3  1  0
  7 14  1  0
  8  7  1  0
  9  1  1  0
 10  8  1  0
 11 24  1  0
 12 10  2  0
 13  4  2  0
 14 20  1  0
 15 19  1  0
 16  8  2  0
 17  9  2  0
 18  9  1  0
 19 11  1  0
 20 11  1  0
 21 12  1  0
 22  5  1  0
 23 18  1  0
 24 23  1  0
 25  6  1  0
 26 21  2  0
 27 21  1  0
 28 29  1  0
 29 25  2  0
 30 26  1  0
 31 27  2  0
 32 31  1  0
  5  4  1  0
 22 28  2  0
  7 15  1  0
 30 32  2  0
M  END
>  <Name>  (80) 
STOCK7S-07898

>  <id>  (80) 
STOCK7S-07898

>  <index>  (80) 
SCD

>  <donors>  (80) 
2

>  <acceptors>  (80) 
8

>  <rotatable>  (80) 
8

>  <clogp>  (80) 
2.71

>  <rings>  (80) 
4

>  <tpsa>  (80) 
98.4

>  <iupac_name>  (80) 
(E)-N-(2-(4-cinnamoylpiperazin-1-yl)ethyl)-4-oxo-3,4-dihydroquinazoline-2-carboxamide

>  <Num_H_Acceptors_Lipinski>  (80) 
8

>  <Num_H_Donors_Lipinski>  (80) 
2

>  <Molecular_Weight>  (80) 
431.487

>  <ALogP>  (80) 
1.67

>  <Num_RotatableBonds>  (80) 
6

>  <Molecular_PolarSurfaceArea>  (80) 
94.11

>  <Num_H_Acceptors>  (80) 
5

>  <Num_H_Donors>  (80) 
2

>  <ADMET_Solubility>  (80) 
-2.835

>  <ADMET_Solubility_Level>  (80) 
3

>  <ADMET_Unknown_AlogP98>  (80) 
0

>  <ADMET_BBB>  (80) 
-1.15

>  <ADMET_BBB_Level>  (80) 
3

>  <ADMET_EXT_CYP2D6>  (80) 
-8.02326804850445

>  <ADMET_EXT_CYP2D6#Prediction>  (80) 
false

>  <ADMET_EXT_CYP2D6_Applicability>  (80) 
All properties and OPS components are within expected ranges.

>  <ADMET_EXT_CYP2D6_Applicability#MD>  (80) 
14.2208810559926

>  <ADMET_EXT_CYP2D6_Applicability#MDpvalue>  (80) 
1.51164299068118e-05

>  <ADMET_EXT_Hepatotoxic>  (80) 
-7.23604519351558

>  <ADMET_EXT_Hepatotoxic#Prediction>  (80) 
false

>  <ADMET_EXT_Hepatotoxic_Applicability>  (80) 
All properties and OPS components are within expected ranges.

>  <ADMET_EXT_Hepatotoxic_Applicability#MD>  (80) 
11.5404864610695

>  <ADMET_EXT_Hepatotoxic_Applicability#MDpvalue>  (80) 
0.000966843884593235

>  <ADMET_Absorption_Level>  (80) 
0

>  <ADMET_EXT_PPB>  (80) 
-1.25973364518566

>  <ADMET_EXT_PPB#Prediction>  (80) 
true

>  <ADMET_EXT_PPB_Applicability>  (80) 
All properties and OPS components are within expected ranges.

>  <ADMET_EXT_PPB_Applicability#MD>  (80) 
16.147067559334

>  <ADMET_EXT_PPB_Applicability#MDpvalue>  (80) 
6.32222154134632e-10

>  <ADMET_AlogP98>  (80) 
1.671

>  <ADMET_PSA_2D>  (80) 
95.551

$$$$
STOCK7S-08716
     RDKit          3D

 23 24  0  0  0  0  0  0  0  0999 V2000
    7.0698   -3.1565    0.0001 C   0  0  0  0  0  0  0  0  0  0  0  0
    7.0105   -4.4807   -0.0001 C   0  0  0  0  0  0  0  0  0  0  0  0
    5.8607   -2.3553    0.0000 C   0  0  0  0  0  0  0  0  0  0  0  0
    8.3026   -2.4910    0.0004 N   0  0  0  0  0  0  0  0  0  0  0  0
    8.2442   -5.2576    0.0000 C   0  0  0  0  0  0  0  0  0  0  0  0
    9.5568   -4.5120    0.0003 C   0  0  0  0  0  0  0  0  0  0  0  0
    9.5156   -3.1836    0.0005 C   0  0  0  0  0  0  0  0  0  0  0  0
    4.6497   -2.9546   -0.0003 N   0  0  0  0  0  0  0  0  0  0  0  0
   -0.4210   -0.1358   -0.0003 C   0  0  0  0  0  0  0  0  0  0  0  0
    0.9510   -0.8238   -0.0003 C   0  0  0  0  0  0  0  0  0  0  0  0
    5.9907   -1.1304    0.0002 O   0  0  0  0  0  0  0  0  0  0  0  0
    8.1607   -6.4898   -0.0002 O   0  0  0  0  0  0  0  0  0  0  0  0
   -1.3998   -0.8904   -0.0005 O   0  0  0  0  0  0  0  0  0  0  0  0
    3.4130   -2.2349   -0.0003 C   0  0  0  0  0  0  0  0  0  0  0  0
    0.9741   -2.1599   -0.0005 C   0  0  0  0  0  0  0  0  0  0  0  0
    2.2387   -0.1183   -0.0001 C   0  0  0  0  0  0  0  0  0  0  0  0
   10.8621   -5.1151    0.0005 O   0  0  0  0  0  0  0  0  0  0  0  0
   -0.7260    1.3031   -0.0001 O   0  0  0  0  0  0  0  0  0  0  0  0
    2.2558   -2.8989   -0.0005 C   0  0  0  0  0  0  0  0  0  0  0  0
    3.3846   -0.7797   -0.0001 C   0  0  0  0  0  0  0  0  0  0  0  0
    0.3395    2.2754    0.0002 C   0  0  0  0  0  0  0  0  0  0  0  0
   10.9124   -6.5447    0.0003 C   0  0  0  0  0  0  0  0  0  0  0  0
   -0.2388    3.6996    0.0003 C   0  0  0  0  0  0  0  0  0  0  0  0
  2  1  2  0
  3  1  1  0
  4  1  1  0
  5  2  1  0
  6  7  2  0
  7  4  1  0
  8  3  1  0
  9 10  1  0
 10 16  2  0
 11  3  2  0
 12  5  2  0
 13  9  2  0
 14  8  1  0
 15 19  2  0
 16 20  1  0
 17  6  1  0
 18  9  1  0
 19 14  1  0
 20 14  2  0
 21 18  1  0
 22 17  1  0
 23 21  1  0
  5  6  1  0
 10 15  1  0
M  END
>  <Name>  (81) 
STOCK7S-08716

>  <id>  (81) 
STOCK7S-08716

>  <index>  (81) 
SCD

>  <donors>  (81) 
2

>  <acceptors>  (81) 
7

>  <rotatable>  (81) 
7

>  <clogp>  (81) 
0.61

>  <rings>  (81) 
2

>  <tpsa>  (81) 
97.49

>  <iupac_name>  (81) 
ethyl 4-(5-methoxy-4-oxo-1,4-dihydropyridine-2-carboxamido)benzoate

>  <Num_H_Acceptors_Lipinski>  (81) 
7

>  <Num_H_Donors_Lipinski>  (81) 
2

>  <Molecular_Weight>  (81) 
316.30864

>  <ALogP>  (81) 
0.256

>  <Num_RotatableBonds>  (81) 
6

>  <Molecular_PolarSurfaceArea>  (81) 
93.73

>  <Num_H_Acceptors>  (81) 
6

>  <Num_H_Donors>  (81) 
2

>  <ADMET_Solubility>  (81) 
-1.7

>  <ADMET_Solubility_Level>  (81) 
4

>  <ADMET_Unknown_AlogP98>  (81) 
0

>  <ADMET_BBB>  (81) 
-1.584

>  <ADMET_BBB_Level>  (81) 
3

>  <ADMET_EXT_CYP2D6>  (81) 
-8.94622350933182

>  <ADMET_EXT_CYP2D6#Prediction>  (81) 
false

>  <ADMET_EXT_CYP2D6_Applicability>  (81) 
All properties and OPS components are within expected ranges.
Unknown FCFP_2 feature: 436975416: [*]CC(=C([*])[*])N[*]

>  <ADMET_EXT_CYP2D6_Applicability#MD>  (81) 
14.1688371965613

>  <ADMET_EXT_CYP2D6_Applicability#MDpvalue>  (81) 
1.72460749355105e-05

>  <ADMET_EXT_Hepatotoxic>  (81) 
-4.73345510229213

>  <ADMET_EXT_Hepatotoxic#Prediction>  (81) 
false

>  <ADMET_EXT_Hepatotoxic_Applicability>  (81) 
All properties and OPS components are within expected ranges.

>  <ADMET_EXT_Hepatotoxic_Applicability#MD>  (81) 
13.0142995968387

>  <ADMET_EXT_Hepatotoxic_Applicability#MDpvalue>  (81) 
1.69035175771746e-06

>  <ADMET_Absorption_Level>  (81) 
0

>  <ADMET_EXT_PPB>  (81) 
-6.59028796452139

>  <ADMET_EXT_PPB#Prediction>  (81) 
false

>  <ADMET_EXT_PPB_Applicability>  (81) 
All properties and OPS components are within expected ranges.

>  <ADMET_EXT_PPB_Applicability#MD>  (81) 
14.0630704795443

>  <ADMET_EXT_PPB_Applicability#MDpvalue>  (81) 
7.82206645274362e-05

>  <ADMET_AlogP98>  (81) 
0.256

>  <ADMET_PSA_2D>  (81) 
95.383

$$$$
STOCK7S-08831
     RDKit          3D

 31 35  0  0  0  0  0  0  0  0999 V2000
    1.7902   -5.7582    0.0143 N   0  0  0  0  0  0  0  0  0  0  0  0
    0.5360   -5.1231    0.0029 C   0  0  0  0  0  0  0  0  0  0  0  0
    2.9849   -5.0147   -0.0152 C   0  0  0  0  0  0  0  0  0  0  0  0
   -0.5758   -5.7312    0.0195 N   0  0  0  0  0  0  0  0  0  0  0  0
    4.2704   -5.7261    0.0015 C   0  0  0  0  0  0  0  0  0  0  0  0
    6.6752   -5.7070   -0.0166 C   0  0  0  0  0  0  0  0  0  0  0  0
    7.9813   -5.0622   -0.0596 C   0  0  0  0  0  0  0  0  0  0  0  0
    4.2809   -7.0565    0.0447 C   0  0  0  0  0  0  0  0  0  0  0  0
    6.6248   -7.1488    0.0370 C   0  0  0  0  0  0  0  0  0  0  0  0
    1.8446   -7.1566    0.0572 C   0  0  0  0  0  0  0  0  0  0  0  0
    0.3209   -3.7485   -0.0266 N   0  0  0  0  0  0  0  0  0  0  0  0
    5.5056   -7.7604    0.0648 N   0  0  0  0  0  0  0  0  0  0  0  0
    5.5442   -5.0013   -0.0337 C   0  0  0  0  0  0  0  0  0  0  0  0
    9.1543   -5.8533   -0.0526 N   0  0  0  0  0  0  0  0  0  0  0  0
   -1.0101   -3.5737   -0.0268 N   0  0  0  0  0  0  0  0  0  0  0  0
    3.0143   -7.7976    0.0742 C   0  0  0  0  0  0  0  0  0  0  0  0
   -1.5457   -4.7300   -0.0002 C   0  0  0  0  0  0  0  0  0  0  0  0
    7.8852   -7.8997    0.0614 C   0  0  0  0  0  0  0  0  0  0  0  0
    9.0652   -7.2676    0.0195 C   0  0  0  0  0  0  0  0  0  0  0  0
    2.9559   -3.7797   -0.0521 O   0  0  0  0  0  0  0  0  0  0  0  0
   14.2036   -6.0283    0.3184 N   0  0  0  0  0  0  0  0  0  0  0  0
    8.0638   -3.8310   -0.1243 O   0  0  0  0  0  0  0  0  0  0  0  0
   16.8051   -7.0765   -0.2932 O   0  0  0  0  0  0  0  0  0  0  0  0
   11.6629   -6.1286    0.1483 C   0  0  0  0  0  0  0  0  0  0  0  0
   10.4502   -5.1903   -0.1426 C   0  0  0  0  0  0  0  0  0  0  0  0
   12.9648   -5.2961   -0.0602 C   0  0  0  0  0  0  0  0  0  0  0  0
   15.3640   -5.1439    0.0773 C   0  0  0  0  0  0  0  0  0  0  0  0
   14.3681   -7.2622   -0.4728 C   0  0  0  0  0  0  0  0  0  0  0  0
   -3.0273   -4.9817    0.0085 C   0  0  0  0  0  0  0  0  0  0  0  0
   16.6664   -5.8719    0.4787 C   0  0  0  0  0  0  0  0  0  0  0  0
   15.6901   -7.9575   -0.0512 C   0  0  0  0  0  0  0  0  0  0  0  0
  2  1  1  0
  3  1  1  0
  4  2  2  0
  5  3  1  0
  6 13  1  0
  7  6  1  0
  8 16  1  0
  9 12  1  0
 10  1  1  0
 11  2  1  0
 12  8  2  0
 13  5  2  0
 14  7  1  0
 15 11  1  0
 16 10  2  0
 17  4  1  0
 18  9  1  0
 19 18  2  0
 20  3  2  0
 21 26  1  0
 22  7  2  0
 23 31  1  0
 24 25  1  0
 25 14  1  0
 26 24  1  0
 27 21  1  0
 28 21  1  0
 29 17  1  0
 30 27  1  0
 31 28  1  0
  5  8  1  0
 15 17  2  0
  9  6  2  0
 14 19  1  0
 30 23  1  0
M  END
>  <Name>  (82) 
STOCK7S-08831

>  <id>  (82) 
STOCK7S-08831

>  <index>  (82) 
SCD

>  <donors>  (82) 
1

>  <acceptors>  (82) 
10

>  <rotatable>  (82) 
5

>  <clogp>  (82) 
0.656

>  <rings>  (82) 
5

>  <tpsa>  (82) 
110.93

>  <iupac_name>  (82) 
2-(3-methyl-1H-1,2,4-triazol-5-yl)-8-(3-morpholinopropyl)pyrido[4,3-b][1,6]naphthyridine-1,9(2H,8H)-dione

>  <Num_H_Acceptors_Lipinski>  (82) 
10

>  <Num_H_Donors_Lipinski>  (82) 
1

>  <Molecular_Weight>  (82) 
421.45242

>  <ALogP>  (82) 
-0.536

>  <Num_RotatableBonds>  (82) 
5

>  <Molecular_PolarSurfaceArea>  (82) 
107.55

>  <Num_H_Acceptors>  (82) 
7

>  <Num_H_Donors>  (82) 
1

>  <ADMET_Solubility>  (82) 
-1.714

>  <ADMET_Solubility_Level>  (82) 
4

>  <ADMET_Unknown_AlogP98>  (82) 
0

>  <ADMET_BBB>  (82) 
-1.94

>  <ADMET_BBB_Level>  (82) 
3

>  <ADMET_EXT_CYP2D6>  (82) 
-9.10154752979987

>  <ADMET_EXT_CYP2D6#Prediction>  (82) 
false

>  <ADMET_EXT_CYP2D6_Applicability>  (82) 
OPS PC15 out of range. Value: 3.8528. Training min, max, SD, explained variance: -2.6925, 3.1146, 1.2, 0.0188.
Unknown FCFP_2 feature: -1410020105: [*]N([*])[c]1:[nH]:[*]:[*]:n:1
Unknown FCFP_2 feature: 262592487: [*][c]1:[*]:[*]:n:[nH]:1
Unknown FCFP_2 feature: 1747267175: [*][c]1:[*]:[*]:[nH]:n:1

>  <ADMET_EXT_CYP2D6_Applicability#MD>  (82) 
14.3020659461243

>  <ADMET_EXT_CYP2D6_Applicability#MDpvalue>  (82) 
1.23003868252653e-05

>  <ADMET_EXT_Hepatotoxic>  (82) 
-7.90794667487833

>  <ADMET_EXT_Hepatotoxic#Prediction>  (82) 
false

>  <ADMET_EXT_Hepatotoxic_Applicability>  (82) 
All properties and OPS components are within expected ranges.
Unknown FCFP_2 feature: -1410020105: [*]N([*])[c]1:[nH]:[*]:[*]:n:1

>  <ADMET_EXT_Hepatotoxic_Applicability#MD>  (82) 
12.0750285007411

>  <ADMET_EXT_Hepatotoxic_Applicability#MDpvalue>  (82) 
0.00011869431629492

>  <ADMET_Absorption_Level>  (82) 
0

>  <ADMET_EXT_PPB>  (82) 
-6.68179123683593

>  <ADMET_EXT_PPB#Prediction>  (82) 
false

>  <ADMET_EXT_PPB_Applicability>  (82) 
OPS PC33 out of range. Value: 3.6536. Training min, max, SD, explained variance: -3.3207, 3.6498, 1.007, 0.0084.
Unknown FCFP_2 feature: -1410020105: [*]N([*])[c]1:[nH]:[*]:[*]:n:1

>  <ADMET_EXT_PPB_Applicability#MD>  (82) 
15.3241357300512

>  <ADMET_EXT_PPB_Applicability#MDpvalue>  (82) 
1.05514771716333e-07

>  <ADMET_AlogP98>  (82) 
-0.536

>  <ADMET_PSA_2D>  (82) 
102.427

$$$$
STOCK7S-10754
     RDKit          3D

 32 36  0  0  0  0  0  0  0  0999 V2000
    4.8534   -7.8882    0.0058 C   0  0  0  0  0  0  0  0  0  0  0  0
    2.4903   -7.9595   -0.0279 N   0  0  0  0  0  0  0  0  0  0  0  0
    2.5154   -9.2989   -0.0395 C   0  0  0  0  0  0  0  0  0  0  0  0
    3.6750   -7.1634    0.0003 C   0  0  0  0  0  0  0  0  0  0  0  0
    1.3361   -9.7613   -0.0423 N   0  0  0  0  0  0  0  0  0  0  0  0
    4.7769   -9.3912   -0.0242 C   0  0  0  0  0  0  0  0  0  0  0  0
    3.6671  -10.0120   -0.0486 N   0  0  0  0  0  0  0  0  0  0  0  0
    6.2804   -7.3616    0.0540 C   0  0  0  0  0  0  0  0  0  0  0  0
    1.2164   -7.5604   -0.0216 N   0  0  0  0  0  0  0  0  0  0  0  0
    0.5143   -8.6255   -0.0296 C   0  0  0  0  0  0  0  0  0  0  0  0
    7.3632   -8.2198    0.0595 N   0  0  0  0  0  0  0  0  0  0  0  0
    6.0121  -10.1825   -0.0422 C   0  0  0  0  0  0  0  0  0  0  0  0
    7.2154   -9.6097   -0.0040 C   0  0  0  0  0  0  0  0  0  0  0  0
    3.4961   -5.5937    0.0108 C   0  0  0  0  0  0  0  0  0  0  0  0
   12.3459   -8.3382   -0.3293 N   0  0  0  0  0  0  0  0  0  0  0  0
    6.5704   -6.1745    0.1217 O   0  0  0  0  0  0  0  0  0  0  0  0
   14.9296   -9.3780    0.2987 O   0  0  0  0  0  0  0  0  0  0  0  0
    2.1418   -4.9938    0.0280 C   0  0  0  0  0  0  0  0  0  0  0  0
    4.5144   -4.7427   -0.0048 C   0  0  0  0  0  0  0  0  0  0  0  0
    9.8487   -8.5036   -0.1705 C   0  0  0  0  0  0  0  0  0  0  0  0
    8.6599   -7.5955    0.1635 C   0  0  0  0  0  0  0  0  0  0  0  0
    3.1297   -2.7798    0.0143 C   0  0  0  0  0  0  0  0  0  0  0  0
    1.9710   -3.6696    0.0289 C   0  0  0  0  0  0  0  0  0  0  0  0
    4.3457   -3.3069   -0.0018 C   0  0  0  0  0  0  0  0  0  0  0  0
   11.1127   -7.6368    0.0499 C   0  0  0  0  0  0  0  0  0  0  0  0
   -0.9863   -8.6580   -0.0245 C   0  0  0  0  0  0  0  0  0  0  0  0
    2.9570   -1.3853    0.0168 O   0  0  0  0  0  0  0  0  0  0  0  0
   13.4915   -7.4469   -0.0686 C   0  0  0  0  0  0  0  0  0  0  0  0
   12.5022   -9.5735    0.4537 C   0  0  0  0  0  0  0  0  0  0  0  0
   13.8219  -10.2610    0.0389 C   0  0  0  0  0  0  0  0  0  0  0  0
   14.7967   -8.1661   -0.4640 C   0  0  0  0  0  0  0  0  0  0  0  0
    4.2279   -0.7040    0.0006 C   0  0  0  0  0  0  0  0  0  0  0  0
  2  4  1  0
  3  7  1  0
  4  1  2  0
  5  3  2  0
  6  1  1  0
  7  6  2  0
  8  1  1  0
  9  2  1  0
 10  9  2  0
 11  8  1  0
 12  6  1  0
 13 11  1  0
 14  4  1  0
 15 25  1  0
 16  8  2  0
 17 30  1  0
 18 14  2  0
 19 14  1  0
 20 21  1  0
 21 11  1  0
 22 24  1  0
 23 18  1  0
 24 19  2  0
 25 20  1  0
 26 10  1  0
 27 22  1  0
 28 15  1  0
 29 15  1  0
 30 29  1  0
 31 28  1  0
 32 27  1  0
 12 13  2  0
  2  3  1  0
 22 23  2  0
 10  5  1  0
 17 31  1  0
M  END
>  <Name>  (83) 
STOCK7S-10754

>  <id>  (83) 
STOCK7S-10754

>  <index>  (83) 
SCD

>  <donors>  (83) 
0

>  <acceptors>  (83) 
9

>  <rotatable>  (83) 
6

>  <clogp>  (83) 
1.938

>  <rings>  (83) 
5

>  <tpsa>  (83) 
86.78

>  <iupac_name>  (83) 
9-(4-methoxyphenyl)-2-methyl-7-(3-morpholinopropyl)pyrido[4,3-d][1,2,4]triazolo[1,5-a]pyrimidin-8(7H)-one

>  <Num_H_Acceptors_Lipinski>  (83) 
9

>  <Num_H_Donors_Lipinski>  (83) 
0

>  <Molecular_Weight>  (83) 
434.49094

>  <ALogP>  (83) 
1.546

>  <Num_RotatableBonds>  (83) 
6

>  <Molecular_PolarSurfaceArea>  (83) 
85.09

>  <Num_H_Acceptors>  (83) 
7

>  <Num_H_Donors>  (83) 
0

>  <ADMET_Solubility>  (83) 
-3.193

>  <ADMET_Solubility_Level>  (83) 
3

>  <ADMET_Unknown_AlogP98>  (83) 
0

>  <ADMET_BBB>  (83) 
-0.958

>  <ADMET_BBB_Level>  (83) 
3

>  <ADMET_EXT_CYP2D6>  (83) 
-8.36485434296513

>  <ADMET_EXT_CYP2D6#Prediction>  (83) 
false

>  <ADMET_EXT_CYP2D6_Applicability>  (83) 
All properties and OPS components are within expected ranges.
Unknown FCFP_2 feature: -332197802: [*][c](:[*]):n1:n:[*]:[*]:[c]:1:[*]
Unknown FCFP_2 feature: -1564503751: [*]:n:[c]1:n:[*]:[*]:n:1:[*]

>  <ADMET_EXT_CYP2D6_Applicability#MD>  (83) 
15.5651596815729

>  <ADMET_EXT_CYP2D6_Applicability#MDpvalue>  (83) 
4.6477801238688e-07

>  <ADMET_EXT_Hepatotoxic>  (83) 
-6.87645938468946

>  <ADMET_EXT_Hepatotoxic#Prediction>  (83) 
false

>  <ADMET_EXT_Hepatotoxic_Applicability>  (83) 
OPS PC17 out of range. Value: -3.5131. Training min, max, SD, explained variance: -3.1271, 3.8227, 1.131, 0.0159.
Unknown FCFP_2 feature: -332197802: [*][c](:[*]):n1:n:[*]:[*]:[c]:1:[*]
Unknown FCFP_2 feature: -1564503751: [*]:n:[c]1:n:[*]:[*]:n:1:[*]

>  <ADMET_EXT_Hepatotoxic_Applicability#MD>  (83) 
13.2782726902259

>  <ADMET_EXT_Hepatotoxic_Applicability#MDpvalue>  (83) 
4.54712587815884e-07

>  <ADMET_Absorption_Level>  (83) 
0

>  <ADMET_EXT_PPB>  (83) 
-2.6806297376848

>  <ADMET_EXT_PPB#Prediction>  (83) 
false

>  <ADMET_EXT_PPB_Applicability>  (83) 
All properties and OPS components are within expected ranges.
Unknown FCFP_2 feature: -1564503751: [*]:n:[c]1:n:[*]:[*]:n:1:[*]

>  <ADMET_EXT_PPB_Applicability#MD>  (83) 
15.469935183386

>  <ADMET_EXT_PPB_Applicability#MDpvalue>  (83) 
4.45264176158085e-08

>  <ADMET_AlogP98>  (83) 
1.546

>  <ADMET_PSA_2D>  (83) 
80.997

$$$$
STOCK7S-11632
     RDKit          3D

 24 26  0  0  0  0  0  0  0  0999 V2000
    3.9560   -2.5576    0.0132 C   0  0  0  0  0  0  0  0  0  0  0  0
    4.0404   -3.8875    0.0246 C   0  0  0  0  0  0  0  0  0  0  0  0
    2.6339   -1.7891    0.0319 C   0  0  0  0  0  0  0  0  0  0  0  0
    5.1578   -1.8040   -0.0197 N   0  0  0  0  0  0  0  0  0  0  0  0
    6.5254   -3.7584   -0.0105 C   0  0  0  0  0  0  0  0  0  0  0  0
    5.3218   -4.5468    0.0072 C   0  0  0  0  0  0  0  0  0  0  0  0
    1.2760   -2.3488    0.0970 N   0  0  0  0  0  0  0  0  0  0  0  0
    6.4294   -2.4288   -0.0234 C   0  0  0  0  0  0  0  0  0  0  0  0
    7.7607   -4.4207   -0.0112 O   0  0  0  0  0  0  0  0  0  0  0  0
   10.1264   -4.3455   -0.0119 C   0  0  0  0  0  0  0  0  0  0  0  0
    2.7158   -0.5571   -0.0189 O   0  0  0  0  0  0  0  0  0  0  0  0
    8.8712   -3.5234   -0.0215 C   0  0  0  0  0  0  0  0  0  0  0  0
    5.3868   -5.7799    0.0151 O   0  0  0  0  0  0  0  0  0  0  0  0
   11.4353   -3.6928   -0.0068 C   0  0  0  0  0  0  0  0  0  0  0  0
   -1.3949   -3.2522    0.2416 O   0  0  0  0  0  0  0  0  0  0  0  0
   11.5390   -1.9693   -0.0111 Cl  0  0  0  0  0  0  0  0  0  0  0  0
    0.9718   -3.7824    0.2199 C   0  0  0  0  0  0  0  0  0  0  0  0
    0.1828   -1.3904    0.1350 C   0  0  0  0  0  0  0  0  0  0  0  0
   10.0451   -5.6756   -0.0075 C   0  0  0  0  0  0  0  0  0  0  0  0
   -0.4317   -4.1484   -0.2909 C   0  0  0  0  0  0  0  0  0  0  0  0
   -1.1532   -1.9866   -0.3627 C   0  0  0  0  0  0  0  0  0  0  0  0
   12.5463   -4.4283    0.0018 C   0  0  0  0  0  0  0  0  0  0  0  0
   11.2652   -6.4855    0.0019 C   0  0  0  0  0  0  0  0  0  0  0  0
   12.4574   -5.8916    0.0062 C   0  0  0  0  0  0  0  0  0  0  0  0
  2  1  2  0
  3  1  1  0
  4  1  1  0
  5  8  2  0
  6  2  1  0
  7  3  1  0
  8  4  1  0
  9  5  1  0
 10 12  1  0
 11  3  2  0
 12  9  1  0
 13  6  2  0
 14 10  2  0
 15 21  1  0
 16 14  1  0
 17  7  1  0
 18  7  1  0
 19 10  1  0
 20 17  1  0
 21 18  1  0
 22 14  1  0
 23 19  2  0
 24 23  1  0
  5  6  1  0
 20 15  1  0
 24 22  2  0
M  END
>  <Name>  (84) 
STOCK7S-11632

>  <id>  (84) 
STOCK7S-11632

>  <index>  (84) 
SCD

>  <donors>  (84) 
1

>  <acceptors>  (84) 
6

>  <rotatable>  (84) 
5

>  <clogp>  (84) 
0.002

>  <rings>  (84) 
3

>  <tpsa>  (84) 
71.63

>  <iupac_name>  (84) 
5-((2-chlorobenzyl)oxy)-2-(morpholine-4-carbonyl)pyridin-4(1H)-one

>  <Num_H_Acceptors_Lipinski>  (84) 
6

>  <Num_H_Donors_Lipinski>  (84) 
1

>  <Molecular_Weight>  (84) 
348.78088

>  <ALogP>  (84) 
0.616

>  <Num_RotatableBonds>  (84) 
4

>  <Molecular_PolarSurfaceArea>  (84) 
67.87

>  <Num_H_Acceptors>  (84) 
5

>  <Num_H_Donors>  (84) 
1

>  <ADMET_Solubility>  (84) 
-2.168

>  <ADMET_Solubility_Level>  (84) 
3

>  <ADMET_Unknown_AlogP98>  (84) 
0

>  <ADMET_BBB>  (84) 
-1.049

>  <ADMET_BBB_Level>  (84) 
3

>  <ADMET_EXT_CYP2D6>  (84) 
-1.81634225465895

>  <ADMET_EXT_CYP2D6#Prediction>  (84) 
false

>  <ADMET_EXT_CYP2D6_Applicability>  (84) 
All properties and OPS components are within expected ranges.
Unknown FCFP_2 feature: 436975416: [*]CC(=C([*])[*])N[*]

>  <ADMET_EXT_CYP2D6_Applicability#MD>  (84) 
14.4351071167404

>  <ADMET_EXT_CYP2D6_Applicability#MDpvalue>  (84) 
8.76193300813563e-06

>  <ADMET_EXT_Hepatotoxic>  (84) 
-6.77868499052332

>  <ADMET_EXT_Hepatotoxic#Prediction>  (84) 
false

>  <ADMET_EXT_Hepatotoxic_Applicability>  (84) 
All properties and OPS components are within expected ranges.

>  <ADMET_EXT_Hepatotoxic_Applicability#MD>  (84) 
15.1008535939136

>  <ADMET_EXT_Hepatotoxic_Applicability#MDpvalue>  (84) 
1.60009673132901e-11

>  <ADMET_Absorption_Level>  (84) 
0

>  <ADMET_EXT_PPB>  (84) 
-1.40852471734856

>  <ADMET_EXT_PPB#Prediction>  (84) 
true

>  <ADMET_EXT_PPB_Applicability>  (84) 
All properties and OPS components are within expected ranges.

>  <ADMET_EXT_PPB_Applicability#MD>  (84) 
13.951810979307

>  <ADMET_EXT_PPB_Applicability#MDpvalue>  (84) 
0.000129659881863765

>  <ADMET_AlogP98>  (84) 
0.616

>  <ADMET_PSA_2D>  (84) 
68.624

$$$$
STOCK7S-12629
     RDKit          3D

 26 28  0  0  0  0  0  0  0  0999 V2000
    4.7303   -1.7638    0.0562 N   0  0  0  0  0  0  0  0  0  0  0  0
    4.8028   -3.1991    0.0298 C   0  0  0  0  0  0  0  0  0  0  0  0
    3.6193   -1.1199    0.0539 C   0  0  0  0  0  0  0  0  0  0  0  0
    3.7600   -3.9252   -0.0006 N   0  0  0  0  0  0  0  0  0  0  0  0
    2.3408   -1.9478    0.0133 C   0  0  0  0  0  0  0  0  0  0  0  0
    6.0419   -3.8609    0.0430 N   0  0  0  0  0  0  0  0  0  0  0  0
    3.7109    0.3543    0.0878 N   0  0  0  0  0  0  0  0  0  0  0  0
    2.4970   -3.3857   -0.0130 C   0  0  0  0  0  0  0  0  0  0  0  0
    8.4968   -5.2764    0.2282 N   0  0  0  0  0  0  0  0  0  0  0  0
    7.2742   -3.1068    0.1666 C   0  0  0  0  0  0  0  0  0  0  0  0
    6.0332   -5.3128    0.1141 C   0  0  0  0  0  0  0  0  0  0  0  0
    4.0463    3.1622    0.2446 O   0  0  0  0  0  0  0  0  0  0  0  0
    7.3460   -5.9496   -0.3742 C   0  0  0  0  0  0  0  0  0  0  0  0
    8.5109   -3.9110   -0.3145 C   0  0  0  0  0  0  0  0  0  0  0  0
    1.1006   -1.4452   -0.0076 C   0  0  0  0  0  0  0  0  0  0  0  0
    9.1217    0.0540   -0.0042 Cl  0  0  0  0  0  0  0  0  0  0  0  0
    5.0455    0.9286    0.1268 C   0  0  0  0  0  0  0  0  0  0  0  0
    2.5552    1.2495    0.2634 C   0  0  0  0  0  0  0  0  0  0  0  0
    9.7328   -5.9727   -0.1882 C   0  0  0  0  0  0  0  0  0  0  0  0
   10.9314   -8.0899   -0.0697 O   0  0  0  0  0  0  0  0  0  0  0  0
    1.4396   -4.1933   -0.0522 C   0  0  0  0  0  0  0  0  0  0  0  0
    2.8100    2.6757   -0.2549 C   0  0  0  0  0  0  0  0  0  0  0  0
    5.0751    2.3939   -0.3742 C   0  0  0  0  0  0  0  0  0  0  0  0
    9.7328   -7.4256    0.3432 C   0  0  0  0  0  0  0  0  0  0  0  0
   -0.0686   -2.3202   -0.0493 C   0  0  0  0  0  0  0  0  0  0  0  0
    0.0938   -3.6384   -0.0697 C   0  0  0  0  0  0  0  0  0  0  0  0
  2  1  2  0
  3  1  1  0
  4  2  1  0
  5  3  2  0
  6  2  1  0
  7  3  1  0
  8  5  1  0
  9 13  1  0
 10  6  1  0
 11  6  1  0
 12 23  1  0
 13 11  1  0
 14 10  1  0
 15  5  1  0
 17  7  1  0
 18  7  1  0
 19  9  1  0
 20 24  1  0
 21  8  1  0
 22 18  1  0
 23 17  1  0
 24 19  1  0
 25 15  2  0
 26 25  1  0
  4  8  2  0
 12 22  1  0
  9 14  1  0
 26 21  2  0
M  END
>  <Name>  (85) 
STOCK7S-12629

>  <id>  (85) 
STOCK7S-12629

>  <saltdata>  (85) 
HCl

>  <index>  (85) 
SC

>  <donors>  (85) 
1

>  <acceptors>  (85) 
7

>  <rotatable>  (85) 
4

>  <clogp>  (85) 
1.452

>  <rings>  (85) 
4

>  <tpsa>  (85) 
64.96

>  <iupac_name>  (85) 
2-(4-(4-morpholinoquinazolin-2-yl)piperazin-1-yl)ethanol hydrochloride

>  <Num_H_Acceptors_Lipinski>  (85) 
7

>  <Num_H_Donors_Lipinski>  (85) 
1

>  <Molecular_Weight>  (85) 
379.88434

>  <ALogP>  (85) 
2.26

>  <Num_RotatableBonds>  (85) 
4

>  <Molecular_PolarSurfaceArea>  (85) 
64.96

>  <Num_H_Acceptors>  (85) 
7

>  <Num_H_Donors>  (85) 
1

>  <ADMET_Solubility>  (85) 
-3.345

>  <ADMET_Solubility_Level>  (85) 
3

>  <ADMET_Unknown_AlogP98>  (85) 
0

>  <ADMET_BBB>  (85) 
-0.56

>  <ADMET_BBB_Level>  (85) 
3

>  <ADMET_EXT_CYP2D6>  (85) 
-1.39597395407256

>  <ADMET_EXT_CYP2D6#Prediction>  (85) 
false

>  <ADMET_EXT_CYP2D6_Applicability>  (85) 
All properties and OPS components are within expected ranges.
Unknown FCFP_2 feature: -1410079687: [*]S[c]1:n:[*]:[*]:n:1

>  <ADMET_EXT_CYP2D6_Applicability#MD>  (85) 
25.0969430186174

>  <ADMET_EXT_CYP2D6_Applicability#MDpvalue>  (85) 
9.52603645119073e-18

>  <ADMET_EXT_Hepatotoxic>  (85) 
-4.99349102743348

>  <ADMET_EXT_Hepatotoxic#Prediction>  (85) 
false

>  <ADMET_EXT_Hepatotoxic_Applicability>  (85) 
All properties and OPS components are within expected ranges.

>  <ADMET_EXT_Hepatotoxic_Applicability#MD>  (85) 
13.4744343120727

>  <ADMET_EXT_Hepatotoxic_Applicability#MDpvalue>  (85) 
1.66159463398287e-07

>  <ADMET_Absorption_Level>  (85) 
0

>  <ADMET_EXT_PPB>  (85) 
2.10870449120462

>  <ADMET_EXT_PPB#Prediction>  (85) 
true

>  <ADMET_EXT_PPB_Applicability>  (85) 
All properties and OPS components are within expected ranges.

>  <ADMET_EXT_PPB_Applicability#MD>  (85) 
13.1624394707845

>  <ADMET_EXT_PPB_Applicability#MDpvalue>  (85) 
0.00317064266142237

>  <ADMET_AlogP98>  (85) 
1.878

>  <ADMET_PSA_2D>  (85) 
62.325

$$$$
STOCK7S-16102
     RDKit          3D

 30 32  0  0  0  0  0  0  0  0999 V2000
    6.9328   -4.0507    0.0002 C   0  0  0  0  0  0  0  0  0  0  0  0
    8.0280   -4.8084    0.0003 C   0  0  0  0  0  0  0  0  0  0  0  0
    7.0760   -2.6096    0.0000 N   0  0  0  0  0  0  0  0  0  0  0  0
    3.2054   -4.9249    0.0001 C   0  0  0  0  0  0  0  0  0  0  0  0
    5.6148   -4.7893    0.0002 C   0  0  0  0  0  0  0  0  0  0  0  0
    4.4192   -4.1797    0.0001 N   0  0  0  0  0  0  0  0  0  0  0  0
    9.4924   -2.7261    0.0000 C   0  0  0  0  0  0  0  0  0  0  0  0
    2.0288   -4.4151   -0.0001 N   0  0  0  0  0  0  0  0  0  0  0  0
    8.3663   -2.0079   -0.0001 C   0  0  0  0  0  0  0  0  0  0  0  0
    9.3570   -4.2234    0.0002 C   0  0  0  0  0  0  0  0  0  0  0  0
    0.9615   -5.4465   -0.0001 C   0  0  0  0  0  0  0  0  0  0  0  0
    3.0791   -6.5840    0.0003 S   0  0  0  0  0  0  0  0  0  0  0  0
   -0.5282   -5.0596   -0.0003 C   0  0  0  0  0  0  0  0  0  0  0  0
    1.4212   -6.7091    0.0001 C   0  0  0  0  0  0  0  0  0  0  0  0
   -1.5397   -6.2176   -0.0004 C   0  0  0  0  0  0  0  0  0  0  0  0
   10.7564   -1.9967   -0.0001 O   0  0  0  0  0  0  0  0  0  0  0  0
    5.6541   -6.0228    0.0004 O   0  0  0  0  0  0  0  0  0  0  0  0
   10.3231   -4.9960    0.0004 O   0  0  0  0  0  0  0  0  0  0  0  0
   -1.1856   -7.4020   -0.0007 O   0  0  0  0  0  0  0  0  0  0  0  0
   11.9470   -2.8107    0.0000 C   0  0  0  0  0  0  0  0  0  0  0  0
    5.9354   -1.7327    0.0000 C   0  0  0  0  0  0  0  0  0  0  0  0
   -2.9057   -5.9238   -0.0002 O   0  0  0  0  0  0  0  0  0  0  0  0
   13.2129   -1.9895   -0.0001 C   0  0  0  0  0  0  0  0  0  0  0  0
   -3.6631   -7.1415   -0.0003 C   0  0  0  0  0  0  0  0  0  0  0  0
   14.3919   -2.6121   -0.0001 C   0  0  0  0  0  0  0  0  0  0  0  0
   13.1619   -0.5241   -0.0001 C   0  0  0  0  0  0  0  0  0  0  0  0
   -5.1691   -6.8170    0.0000 C   0  0  0  0  0  0  0  0  0  0  0  0
   14.2951    0.1799   -0.0002 C   0  0  0  0  0  0  0  0  0  0  0  0
   15.6365   -1.8396   -0.0002 C   0  0  0  0  0  0  0  0  0  0  0  0
   15.5916   -0.5088   -0.0002 C   0  0  0  0  0  0  0  0  0  0  0  0
  2  1  2  0
  3  1  1  0
  4  6  1  0
  5  1  1  0
  6  5  1  0
  7  9  2  0
  8  4  2  0
  9  3  1  0
 10  2  1  0
 11  8  1  0
 12  4  1  0
 13 11  1  0
 14 12  1  0
 15 13  1  0
 16  7  1  0
 17  5  2  0
 18 10  2  0
 19 15  2  0
 20 16  1  0
 21  3  1  0
 22 15  1  0
 23 20  1  0
 24 22  1  0
 25 23  2  0
 26 23  1  0
 27 24  1  0
 28 26  2  0
 29 25  1  0
 30 28  1  0
 10  7  1  0
 14 11  2  0
 29 30  2  0
M  END
>  <Name>  (86) 
STOCK7S-16102

>  <id>  (86) 
STOCK7S-16102

>  <index>  (86) 
SCD

>  <donors>  (86) 
1

>  <acceptors>  (86) 
8

>  <rotatable>  (86) 
10

>  <clogp>  (86) 
0.874

>  <rings>  (86) 
3

>  <tpsa>  (86) 
99.5200000000003

>  <iupac_name>  (86) 
ethyl 2-(2-(5-(benzyloxy)-1-methyl-4-oxo-1,4-dihydropyridine-2-carboxamido)thiazol-4-yl)acetate

>  <Num_H_Acceptors_Lipinski>  (86) 
8

>  <Num_H_Donors_Lipinski>  (86) 
1

>  <Molecular_Weight>  (86) 
427.47354

>  <ALogP>  (86) 
1.836

>  <Num_RotatableBonds>  (86) 
9

>  <Molecular_PolarSurfaceArea>  (86) 
126.06

>  <Num_H_Acceptors>  (86) 
7

>  <Num_H_Donors>  (86) 
1

>  <ADMET_Solubility>  (86) 
-3.01

>  <ADMET_Solubility_Level>  (86) 
3

>  <ADMET_Unknown_AlogP98>  (86) 
0

>  <ADMET_BBB>  (86) 
-1.065

>  <ADMET_BBB_Level>  (86) 
3

>  <ADMET_EXT_CYP2D6>  (86) 
-3.09744467498608

>  <ADMET_EXT_CYP2D6#Prediction>  (86) 
false

>  <ADMET_EXT_CYP2D6_Applicability>  (86) 
All properties and OPS components are within expected ranges.

>  <ADMET_EXT_CYP2D6_Applicability#MD>  (86) 
15.4660237848033

>  <ADMET_EXT_CYP2D6_Applicability#MDpvalue>  (86) 
6.03258886818322e-07

>  <ADMET_EXT_Hepatotoxic>  (86) 
-7.61564338185771

>  <ADMET_EXT_Hepatotoxic#Prediction>  (86) 
false

>  <ADMET_EXT_Hepatotoxic_Applicability>  (86) 
All properties and OPS components are within expected ranges.

>  <ADMET_EXT_Hepatotoxic_Applicability#MD>  (86) 
12.5472853263869

>  <ADMET_EXT_Hepatotoxic_Applicability#MDpvalue>  (86) 
1.52455405027691e-05

>  <ADMET_Absorption_Level>  (86) 
0

>  <ADMET_EXT_PPB>  (86) 
-6.0978046297554

>  <ADMET_EXT_PPB#Prediction>  (86) 
false

>  <ADMET_EXT_PPB_Applicability>  (86) 
All properties and OPS components are within expected ranges.

>  <ADMET_EXT_PPB_Applicability#MD>  (86) 
16.4908628112455

>  <ADMET_EXT_PPB_Applicability#MDpvalue>  (86) 
6.2807791433609e-11

>  <ADMET_AlogP98>  (86) 
2.029

>  <ADMET_PSA_2D>  (86) 
97.186

$$$$
STOCK7S-16441
     RDKit          3D

 26 28  0  0  0  0  0  0  0  0999 V2000
    1.4930   -3.0454    0.2831 C   0  0  0  0  0  0  0  0  0  0  0  0
    2.7092   -2.6785   -0.1485 C   0  0  0  0  0  0  0  0  0  0  0  0
    0.9991   -1.6409    0.3066 C   0  0  0  0  0  0  0  0  0  0  0  0
    2.3406   -1.2930   -0.1840 C   0  0  0  0  0  0  0  0  0  0  0  0
    0.7504   -4.2388    0.1501 N   0  0  0  0  0  0  0  0  0  0  0  0
   -0.8343   -6.5926   -0.0477 N   0  0  0  0  0  0  0  0  0  0  0  0
   -1.6511   -7.7352   -0.0662 C   0  0  0  0  0  0  0  0  0  0  0  0
   -0.0305   -1.2753   -0.2653 O   0  0  0  0  0  0  0  0  0  0  0  0
    2.9755   -0.3005    0.1977 O   0  0  0  0  0  0  0  0  0  0  0  0
    3.9760   -3.2949   -0.0079 N   0  0  0  0  0  0  0  0  0  0  0  0
    1.3712   -5.4670   -0.2806 C   0  0  0  0  0  0  0  0  0  0  0  0
   -0.6629   -4.2086    0.4461 C   0  0  0  0  0  0  0  0  0  0  0  0
   -1.4191   -5.3152   -0.3216 C   0  0  0  0  0  0  0  0  0  0  0  0
    0.5783   -6.6984    0.2631 C   0  0  0  0  0  0  0  0  0  0  0  0
   -2.8558   -7.6228   -0.3228 O   0  0  0  0  0  0  0  0  0  0  0  0
    8.9225   -3.1654    0.0084 N   0  0  0  0  0  0  0  0  0  0  0  0
   10.1920   -2.5476    0.0051 C   0  0  0  0  0  0  0  0  0  0  0  0
    6.4667   -3.3203    0.0142 C   0  0  0  0  0  0  0  0  0  0  0  0
   -1.0764   -9.0918    0.2319 C   0  0  0  0  0  0  0  0  0  0  0  0
    5.1752   -2.4825   -0.1539 C   0  0  0  0  0  0  0  0  0  0  0  0
    7.7088   -2.3893   -0.1067 C   0  0  0  0  0  0  0  0  0  0  0  0
   10.3151   -1.0841   -0.0644 C   0  0  0  0  0  0  0  0  0  0  0  0
   11.2910   -3.2999    0.0657 C   0  0  0  0  0  0  0  0  0  0  0  0
   12.6176   -2.6724    0.0623 C   0  0  0  0  0  0  0  0  0  0  0  0
   11.5214   -0.5149   -0.0661 C   0  0  0  0  0  0  0  0  0  0  0  0
   12.7274   -1.3466   -0.0002 C   0  0  0  0  0  0  0  0  0  0  0  0
  2  1  2  0
  3  1  1  0
  4  3  1  0
  5  1  1  0
  6 13  1  0
  7  6  1  0
  8  3  2  0
  9  4  2  0
 10  2  1  0
 11  5  1  0
 12  5  1  0
 13 12  1  0
 14 11  1  0
 15  7  2  0
 16 21  1  0
 17 16  1  0
 18 20  1  0
 19  7  1  0
 20 10  1  0
 21 18  1  0
 22 17  2  0
 23 17  1  0
 24 23  2  0
 25 22  1  0
 26 24  1  0
  2  4  1  0
 14  6  1  0
 26 25  2  0
M  END
>  <Name>  (87) 
STOCK7S-16441

>  <id>  (87) 
STOCK7S-16441

>  <index>  (87) 
SCD

>  <donors>  (87) 
2

>  <acceptors>  (87) 
7

>  <rotatable>  (87) 
8

>  <clogp>  (87) 
0.438

>  <rings>  (87) 
3

>  <tpsa>  (87) 
81.75

>  <iupac_name>  (87) 
3-(4-acetylpiperazin-1-yl)-4-((3-(phenylamino)propyl)amino)cyclobut-3-ene-1,2-dione

>  <Num_H_Acceptors_Lipinski>  (87) 
7

>  <Num_H_Donors_Lipinski>  (87) 
2

>  <Molecular_Weight>  (87) 
356.41886

>  <ALogP>  (87) 
-0.038

>  <Num_RotatableBonds>  (87) 
7

>  <Molecular_PolarSurfaceArea>  (87) 
81.75

>  <Num_H_Acceptors>  (87) 
6

>  <Num_H_Donors>  (87) 
2

>  <ADMET_Solubility>  (87) 
-1.15

>  <ADMET_Solubility_Level>  (87) 
4

>  <ADMET_Unknown_AlogP98>  (87) 
0

>  <ADMET_BBB>  (87) 
-1.498

>  <ADMET_BBB_Level>  (87) 
3

>  <ADMET_EXT_CYP2D6>  (87) 
-6.88417069593714

>  <ADMET_EXT_CYP2D6#Prediction>  (87) 
false

>  <ADMET_EXT_CYP2D6_Applicability>  (87) 
OPS PC9 out of range. Value: 4.5798. Training min, max, SD, explained variance: -4.6974, 3.8454, 1.569, 0.0322.
Unknown FCFP_2 feature: 436975416: [*]CC(=C([*])[*])N[*]

>  <ADMET_EXT_CYP2D6_Applicability#MD>  (87) 
12.3653258736333

>  <ADMET_EXT_CYP2D6_Applicability#MDpvalue>  (87) 
0.0013186671187659

>  <ADMET_EXT_Hepatotoxic>  (87) 
-5.39500973333199

>  <ADMET_EXT_Hepatotoxic#Prediction>  (87) 
false

>  <ADMET_EXT_Hepatotoxic_Applicability>  (87) 
All properties and OPS components are within expected ranges.

>  <ADMET_EXT_Hepatotoxic_Applicability#MD>  (87) 
11.3047180691235

>  <ADMET_EXT_Hepatotoxic_Applicability#MDpvalue>  (87) 
0.0022488650511808

>  <ADMET_Absorption_Level>  (87) 
0

>  <ADMET_EXT_PPB>  (87) 
-4.17110805029072

>  <ADMET_EXT_PPB#Prediction>  (87) 
false

>  <ADMET_EXT_PPB_Applicability>  (87) 
All properties and OPS components are within expected ranges.

>  <ADMET_EXT_PPB_Applicability#MD>  (87) 
13.2161458042067

>  <ADMET_EXT_PPB_Applicability#MDpvalue>  (87) 
0.00260805871258607

>  <ADMET_AlogP98>  (87) 
-0.038

>  <ADMET_PSA_2D>  (87) 
84.227

$$$$
STOCK7S-17214
     RDKit          3D

 24 25  0  0  0  0  0  0  0  0999 V2000
    6.2925    0.2324    0.0469 N   0  0  0  0  0  0  0  0  0  0  0  0
    6.3198   -1.1719   -0.0768 C   0  0  0  0  0  0  0  0  0  0  0  0
    5.0953   -1.9539   -0.1501 N   0  0  0  0  0  0  0  0  0  0  0  0
    5.0289    0.9170    0.1117 C   0  0  0  0  0  0  0  0  0  0  0  0
    3.8060    0.1543    0.0420 C   0  0  0  0  0  0  0  0  0  0  0  0
    3.8589   -1.2921   -0.0890 C   0  0  0  0  0  0  0  0  0  0  0  0
    5.0669   -3.4308   -0.3279 C   0  0  0  0  0  0  0  0  0  0  0  0
    7.4357   -1.6986   -0.1410 O   0  0  0  0  0  0  0  0  0  0  0  0
    6.2521   -5.6203   -0.2638 N   0  0  0  0  0  0  0  0  0  0  0  0
    4.9325    2.1440    0.2261 O   0  0  0  0  0  0  0  0  0  0  0  0
    7.6166    0.8974    0.1034 C   0  0  0  0  0  0  0  0  0  0  0  0
    6.3456   -4.1969    0.1030 C   0  0  0  0  0  0  0  0  0  0  0  0
    6.3149   -8.4052    0.3599 O   0  0  0  0  0  0  0  0  0  0  0  0
    2.6347    0.7840    0.0972 C   0  0  0  0  0  0  0  0  0  0  0  0
    2.7234   -1.9900   -0.1527 C   0  0  0  0  0  0  0  0  0  0  0  0
   10.9452   -4.6229   -0.0018 Cl  0  0  0  0  0  0  0  0  0  0  0  0
    5.1274   -6.2700    0.4314 C   0  0  0  0  0  0  0  0  0  0  0  0
    7.5076   -6.2975    0.0953 C   0  0  0  0  0  0  0  0  0  0  0  0
    8.9963    2.8959    0.0209 O   0  0  0  0  0  0  0  0  0  0  0  0
    7.4178   -7.7805   -0.3197 C   0  0  0  0  0  0  0  0  0  0  0  0
    5.0759   -7.7580    0.0118 C   0  0  0  0  0  0  0  0  0  0  0  0
    7.6462    2.4339   -0.0648 C   0  0  0  0  0  0  0  0  0  0  0  0
    1.3894    0.0228    0.0278 C   0  0  0  0  0  0  0  0  0  0  0  0
    1.4311   -1.3023   -0.0908 C   0  0  0  0  0  0  0  0  0  0  0  0
  2  1  1  0
  3  2  1  0
  4  1  1  0
  5  4  1  0
  6  5  2  0
  7  3  1  0
  8  2  2  0
  9 12  1  0
 10  4  2  0
 11  1  1  0
 12  7  1  0
 13 21  1  0
 14  5  1  0
 15  6  1  0
 17  9  1  0
 18  9  1  0
 19 22  1  0
 20 18  1  0
 21 17  1  0
 22 11  1  0
 23 14  2  0
 24 23  1  0
  3  6  1  0
 24 15  2  0
 13 20  1  0
M  END
>  <Name>  (88) 
STOCK7S-17214

>  <id>  (88) 
STOCK7S-17214

>  <saltdata>  (88) 
HCl

>  <index>  (88) 
SC

>  <donors>  (88) 
1

>  <acceptors>  (88) 
7

>  <rotatable>  (88) 
5

>  <clogp>  (88) 
0.916

>  <rings>  (88) 
3

>  <tpsa>  (88) 
76.7

>  <iupac_name>  (88) 
3-(2-hydroxyethyl)-1-(2-morpholinoethyl)quinazoline-2,4(1H,3H)-dione hydrochloride

>  <Num_H_Acceptors_Lipinski>  (88) 
7

>  <Num_H_Donors_Lipinski>  (88) 
1

>  <Molecular_Weight>  (88) 
355.81658

>  <ALogP>  (88) 
0.645

>  <Num_RotatableBonds>  (88) 
5

>  <Molecular_PolarSurfaceArea>  (88) 
73.32

>  <Num_H_Acceptors>  (88) 
5

>  <Num_H_Donors>  (88) 
1

>  <ADMET_Solubility>  (88) 
-1.885

>  <ADMET_Solubility_Level>  (88) 
4

>  <ADMET_Unknown_AlogP98>  (88) 
0

>  <ADMET_BBB>  (88) 
-1.088

>  <ADMET_BBB_Level>  (88) 
3

>  <ADMET_EXT_CYP2D6>  (88) 
-5.6623366453919

>  <ADMET_EXT_CYP2D6#Prediction>  (88) 
false

>  <ADMET_EXT_CYP2D6_Applicability>  (88) 
All properties and OPS components are within expected ranges.

>  <ADMET_EXT_CYP2D6_Applicability#MD>  (88) 
22.318766748537

>  <ADMET_EXT_CYP2D6_Applicability#MDpvalue>  (88) 
8.94400066933921e-15

>  <ADMET_EXT_Hepatotoxic>  (88) 
-6.91266297091664

>  <ADMET_EXT_Hepatotoxic#Prediction>  (88) 
false

>  <ADMET_EXT_Hepatotoxic_Applicability>  (88) 
All properties and OPS components are within expected ranges.

>  <ADMET_EXT_Hepatotoxic_Applicability#MD>  (88) 
12.2456501725494

>  <ADMET_EXT_Hepatotoxic_Applicability#MDpvalue>  (88) 
5.7734870241819e-05

>  <ADMET_Absorption_Level>  (88) 
0

>  <ADMET_EXT_PPB>  (88) 
-2.14282885837945

>  <ADMET_EXT_PPB#Prediction>  (88) 
true

>  <ADMET_EXT_PPB_Applicability>  (88) 
All properties and OPS components are within expected ranges.

>  <ADMET_EXT_PPB_Applicability#MD>  (88) 
13.66496833759

>  <ADMET_EXT_PPB_Applicability#MDpvalue>  (88) 
0.0004487131657209

>  <ADMET_AlogP98>  (88) 
0.788

>  <ADMET_PSA_2D>  (88) 
74.404

$$$$
STOCK7S-17599
     RDKit          3D

 25 26  0  0  0  0  0  0  0  0999 V2000
    7.5390   -3.6972    0.0756 C   0  0  0  0  0  0  0  0  0  0  0  0
    8.7180   -4.3602    0.0331 C   0  0  0  0  0  0  0  0  0  0  0  0
    9.9551   -3.6084   -0.0423 C   0  0  0  0  0  0  0  0  0  0  0  0
    7.5655   -2.3101    0.0521 O   0  0  0  0  0  0  0  0  0  0  0  0
    6.1486   -4.4488    0.1731 C   0  0  2  0  0  0  0  0  0  0  0  0
    9.9110   -2.1760   -0.0523 C   0  0  0  0  0  0  0  0  0  0  0  0
    8.7289   -1.5742   -0.0043 C   0  0  0  0  0  0  0  0  0  0  0  0
    5.0484   -6.8187    0.1265 C   0  0  0  0  0  0  0  0  0  0  0  0
    6.0814   -5.8882   -0.4823 C   0  0  0  0  0  0  0  0  0  0  0  0
    4.8559   -3.5538    0.0476 C   0  0  0  0  0  0  0  0  0  0  0  0
   11.0411   -4.1995   -0.0833 O   0  0  0  0  0  0  0  0  0  0  0  0
    4.3894   -6.4662    1.1117 O   0  0  0  0  0  0  0  0  0  0  0  0
    8.8146   -5.7470    0.0742 O   0  0  0  0  0  0  0  0  0  0  0  0
    3.5706   -4.1312   -0.3947 C   0  0  0  0  0  0  0  0  0  0  0  0
    4.8848   -2.2536    0.3464 C   0  0  0  0  0  0  0  0  0  0  0  0
    2.5187   -1.9711   -0.1607 C   0  0  0  0  0  0  0  0  0  0  0  0
    2.4728   -3.3867   -0.4876 C   0  0  0  0  0  0  0  0  0  0  0  0
    3.6712   -1.4267    0.2351 C   0  0  0  0  0  0  0  0  0  0  0  0
    4.8625   -8.0890   -0.4116 O   0  0  0  0  0  0  0  0  0  0  0  0
    8.6697   -0.0765   -0.0084 C   0  0  0  0  0  0  0  0  0  0  0  0
    1.3431   -1.2038   -0.2728 O   0  0  0  0  0  0  0  0  0  0  0  0
   10.0012    0.4489   -0.0494 O   0  0  0  0  0  0  0  0  0  0  0  0
    3.8560   -8.7816    0.3320 C   0  0  0  0  0  0  0  0  0  0  0  0
    1.5690    0.1682    0.0794 C   0  0  0  0  0  0  0  0  0  0  0  0
    3.6770  -10.1995   -0.2394 C   0  0  0  0  0  0  0  0  0  0  0  0
  2  1  2  0
  3  2  1  0
  4  1  1  0
  5  1  1  0
  6  7  2  0
  7  4  1  0
  8  9  1  0
  5  9  1  6
 10  5  1  0
 11  3  2  0
 12  8  2  0
 13  2  1  0
 14 10  2  0
 15 10  1  0
 16 18  1  0
 17 14  1  0
 18 15  2  0
 19  8  1  0
 20  7  1  0
 21 16  1  0
 22 20  1  0
 23 19  1  0
 24 21  1  0
 25 23  1  0
  6  3  1  0
 17 16  2  0
M  END
>  <Name>  (89) 
STOCK7S-17599

>  <id>  (89) 
STOCK7S-17599

>  <index>  (89) 
SC

>  <donors>  (89) 
2

>  <acceptors>  (89) 
7

>  <rotatable>  (89) 
8

>  <clogp>  (89) 
0.436

>  <rings>  (89) 
2

>  <tpsa>  (89) 
106.2

>  <iupac_name>  (89) 
ethyl 3-(3-hydroxy-6-(hydroxymethyl)-4-oxo-4H-pyran-2-yl)-3-(4-methoxyphenyl)propanoate

>  <Num_H_Acceptors_Lipinski>  (89) 
7

>  <Num_H_Donors_Lipinski>  (89) 
2

>  <Molecular_Weight>  (89) 
348.3472

>  <ALogP>  (89) 
1.015

>  <Num_RotatableBonds>  (89) 
8

>  <Molecular_PolarSurfaceArea>  (89) 
102.29

>  <Num_H_Acceptors>  (89) 
7

>  <Num_H_Donors>  (89) 
2

>  <ADMET_Solubility>  (89) 
-1.72

>  <ADMET_Solubility_Level>  (89) 
4

>  <ADMET_Unknown_AlogP98>  (89) 
0

>  <ADMET_BBB>  (89) 
-1.47

>  <ADMET_BBB_Level>  (89) 
3

>  <ADMET_EXT_CYP2D6>  (89) 
-7.13469695452889

>  <ADMET_EXT_CYP2D6#Prediction>  (89) 
false

>  <ADMET_EXT_CYP2D6_Applicability>  (89) 
All properties and OPS components are within expected ranges.

>  <ADMET_EXT_CYP2D6_Applicability#MD>  (89) 
13.2048334096593

>  <ADMET_EXT_CYP2D6_Applicability#MDpvalue>  (89) 
0.000186749566824657

>  <ADMET_EXT_Hepatotoxic>  (89) 
-7.3624060861623

>  <ADMET_EXT_Hepatotoxic#Prediction>  (89) 
false

>  <ADMET_EXT_Hepatotoxic_Applicability>  (89) 
All properties and OPS components are within expected ranges.

>  <ADMET_EXT_Hepatotoxic_Applicability#MD>  (89) 
13.5696703876278

>  <ADMET_EXT_Hepatotoxic_Applicability#MDpvalue>  (89) 
1.00984159225897e-07

>  <ADMET_Absorption_Level>  (89) 
0

>  <ADMET_EXT_PPB>  (89) 
-4.00978931490715

>  <ADMET_EXT_PPB#Prediction>  (89) 
false

>  <ADMET_EXT_PPB_Applicability>  (89) 
All properties and OPS components are within expected ranges.

>  <ADMET_EXT_PPB_Applicability#MD>  (89) 
12.2714134260768

>  <ADMET_EXT_PPB_Applicability#MDpvalue>  (89) 
0.0494952723442378

>  <ADMET_AlogP98>  (89) 
1.015

>  <ADMET_PSA_2D>  (89) 
103.022

$$$$
STOCK7S-19602
     RDKit          3D

 28 31  0  0  0  0  0  0  0  0999 V2000
    5.7387   -2.2876   -0.0026 N   0  0  0  0  0  0  0  0  0  0  0  0
    5.8738   -3.7081   -0.0008 C   0  0  0  0  0  0  0  0  0  0  0  0
    4.7160   -4.5906   -0.0010 N   0  0  0  0  0  0  0  0  0  0  0  0
    4.4165   -1.7309   -0.0052 C   0  0  0  0  0  0  0  0  0  0  0  0
    3.2750   -2.5867   -0.0054 C   0  0  0  0  0  0  0  0  0  0  0  0
    3.4381   -4.0196   -0.0037 C   0  0  0  0  0  0  0  0  0  0  0  0
    4.7488   -6.0918    0.0072 C   0  0  0  0  0  0  0  0  0  0  0  0
    6.0576   -6.8961    0.0124 C   0  0  0  0  0  0  0  0  0  0  0  0
    5.9967   -8.2973    0.0730 N   0  0  0  0  0  0  0  0  0  0  0  0
    7.0566   -1.5308   -0.0006 C   0  0  0  0  0  0  0  0  0  0  0  0
    7.0206   -4.1535    0.0032 O   0  0  0  0  0  0  0  0  0  0  0  0
    4.1902   -0.5277   -0.0064 O   0  0  0  0  0  0  0  0  0  0  0  0
    7.1674   -6.3665   -0.0302 O   0  0  0  0  0  0  0  0  0  0  0  0
    5.9056  -11.0823    0.2872 O   0  0  0  0  0  0  0  0  0  0  0  0
    2.0619   -2.0412   -0.0065 C   0  0  0  0  0  0  0  0  0  0  0  0
    7.2719    0.0257   -0.0004 C   0  0  0  0  0  0  0  0  0  0  0  0
    2.3571   -4.8028   -0.0034 C   0  0  0  0  0  0  0  0  0  0  0  0
    4.7055   -8.9619    0.1694 C   0  0  0  0  0  0  0  0  0  0  0  0
    7.2372   -9.0473    0.1332 C   0  0  0  0  0  0  0  0  0  0  0  0
    7.0595  -10.5099   -0.3215 C   0  0  0  0  0  0  0  0  0  0  0  0
    4.7735  -10.4352   -0.2880 C   0  0  0  0  0  0  0  0  0  0  0  0
    6.2069    1.0343   -0.0012 C   0  0  0  0  0  0  0  0  0  0  0  0
    8.5345    0.4579    0.0007 C   0  0  0  0  0  0  0  0  0  0  0  0
    0.8773   -2.8882   -0.0064 C   0  0  0  0  0  0  0  0  0  0  0  0
    1.0168   -4.2109   -0.0051 C   0  0  0  0  0  0  0  0  0  0  0  0
    8.8422    1.8948    0.0010 C   0  0  0  0  0  0  0  0  0  0  0  0
    6.4782    2.3367   -0.0009 C   0  0  0  0  0  0  0  0  0  0  0  0
    7.8586    2.7901    0.0002 C   0  0  0  0  0  0  0  0  0  0  0  0
  2  1  1  0
  3  2  1  0
  4  1  1  0
  5  4  1  0
  6  5  2  0
  7  3  1  0
  8  7  1  0
  9  8  1  0
 10  1  1  0
 11  2  2  0
 12  4  2  0
 13  8  2  0
 14 20  1  0
 15  5  1  0
 16 10  1  0
 17  6  1  0
 18  9  1  0
 19  9  1  0
 20 19  1  0
 21 18  1  0
 22 16  2  0
 23 16  1  0
 24 15  2  0
 25 24  1  0
 26 23  2  0
 27 22  1  0
 28 26  1  0
  6  3  1  0
 27 28  2  0
 17 25  2  0
 21 14  1  0
M  END
>  <Name>  (90) 
STOCK7S-19602

>  <id>  (90) 
STOCK7S-19602

>  <index>  (90) 
SC

>  <donors>  (90) 
0

>  <acceptors>  (90) 
7

>  <rotatable>  (90) 
5

>  <clogp>  (90) 
2.833

>  <rings>  (90) 
4

>  <tpsa>  (90) 
73.54

>  <iupac_name>  (90) 
3-benzyl-1-(2-morpholino-2-oxoethyl)quinazoline-2,4(1H,3H)-dione

>  <Num_H_Acceptors_Lipinski>  (90) 
7

>  <Num_H_Donors_Lipinski>  (90) 
0

>  <Molecular_Weight>  (90) 
379.40914

>  <ALogP>  (90) 
1.513

>  <Num_RotatableBonds>  (90) 
4

>  <Molecular_PolarSurfaceArea>  (90) 
70.16

>  <Num_H_Acceptors>  (90) 
4

>  <Num_H_Donors>  (90) 
0

>  <ADMET_Solubility>  (90) 
-3.567

>  <ADMET_Solubility_Level>  (90) 
3

>  <ADMET_Unknown_AlogP98>  (90) 
0

>  <ADMET_BBB>  (90) 
-0.646

>  <ADMET_BBB_Level>  (90) 
3

>  <ADMET_EXT_CYP2D6>  (90) 
-7.98196856189614

>  <ADMET_EXT_CYP2D6#Prediction>  (90) 
false

>  <ADMET_EXT_CYP2D6_Applicability>  (90) 
All properties and OPS components are within expected ranges.

>  <ADMET_EXT_CYP2D6_Applicability#MD>  (90) 
12.5326218910825

>  <ADMET_EXT_CYP2D6_Applicability#MDpvalue>  (90) 
0.000903124731185239

>  <ADMET_EXT_Hepatotoxic>  (90) 
-6.79679947246707

>  <ADMET_EXT_Hepatotoxic#Prediction>  (90) 
false

>  <ADMET_EXT_Hepatotoxic_Applicability>  (90) 
All properties and OPS components are within expected ranges.

>  <ADMET_EXT_Hepatotoxic_Applicability#MD>  (90) 
10.9762467420276

>  <ADMET_EXT_Hepatotoxic_Applicability#MDpvalue>  (90) 
0.00668235170983229

>  <ADMET_Absorption_Level>  (90) 
0

>  <ADMET_EXT_PPB>  (90) 
1.9047919127698

>  <ADMET_EXT_PPB#Prediction>  (90) 
true

>  <ADMET_EXT_PPB_Applicability>  (90) 
All properties and OPS components are within expected ranges.

>  <ADMET_EXT_PPB_Applicability#MD>  (90) 
13.1468061369971

>  <ADMET_EXT_PPB_Applicability#MDpvalue>  (90) 
0.00335405507721332

>  <ADMET_AlogP98>  (90) 
2.037

>  <ADMET_PSA_2D>  (90) 
70.889

$$$$
STOCK7S-26850
     RDKit          3D

 24 25  0  0  0  0  0  0  0  0999 V2000
    1.9131   -2.6552    0.0502 C   0  0  0  0  0  0  0  0  0  0  0  0
    2.0669   -4.1792   -0.0048 C   0  0  0  0  0  0  0  0  0  0  0  0
    0.6177   -2.2285    0.0484 C   0  0  0  0  0  0  0  0  0  0  0  0
    3.2830   -1.6960    0.1215 C   0  0  1  0  0  0  0  0  0  0  0  0
    1.0059   -4.9818   -0.0537 N   0  0  0  0  0  0  0  0  0  0  0  0
   -0.4846   -3.1844   -0.0092 C   0  0  0  0  0  0  0  0  0  0  0  0
   -0.2779   -4.4874   -0.0583 C   0  0  0  0  0  0  0  0  0  0  0  0
    4.6383   -2.4605   -0.3262 C   0  0  0  0  0  0  0  0  0  0  0  0
    3.2940   -0.0759    0.0177 C   0  0  0  0  0  0  0  0  0  0  0  0
    5.9766   -2.0801    0.3724 C   0  0  0  0  0  0  0  0  0  0  0  0
    3.1724   -4.7314    0.0121 O   0  0  0  0  0  0  0  0  0  0  0  0
    6.0745   -1.0484    1.0413 O   0  0  0  0  0  0  0  0  0  0  0  0
    0.2363   -0.9368    0.0964 O   0  0  0  0  0  0  0  0  0  0  0  0
    4.4041    0.5709   -0.3484 C   0  0  0  0  0  0  0  0  0  0  0  0
    2.1402    0.7586    0.3538 C   0  0  0  0  0  0  0  0  0  0  0  0
    3.3909    2.7645   -0.0828 C   0  0  0  0  0  0  0  0  0  0  0  0
    4.4636    2.0407   -0.3976 C   0  0  0  0  0  0  0  0  0  0  0  0
    2.1761    2.0863    0.2994 C   0  0  0  0  0  0  0  0  0  0  0  0
    7.1111   -2.9245    0.3046 O   0  0  0  0  0  0  0  0  0  0  0  0
    3.4190    4.1708   -0.0954 O   0  0  0  0  0  0  0  0  0  0  0  0
   -1.4480   -5.4276   -0.1143 C   0  0  0  0  0  0  0  0  0  0  0  0
    6.8759   -4.1273   -0.4368 C   0  0  0  0  0  0  0  0  0  0  0  0
    4.7158    4.6700   -0.4482 C   0  0  0  0  0  0  0  0  0  0  0  0
    8.1323   -5.0227   -0.3428 C   0  0  0  0  0  0  0  0  0  0  0  0
  2  1  1  0
  3  1  2  0
  4  1  1  0
  5  2  1  0
  6  3  1  0
  7  6  2  0
  4  8  1  6
  9  4  1  0
 10  8  1  0
 11  2  2  0
 12 10  2  0
 13  3  1  0
 14  9  2  0
 15  9  1  0
 16 18  1  0
 17 14  1  0
 18 15  2  0
 19 10  1  0
 20 16  1  0
 21  7  1  0
 22 19  1  0
 23 20  1  0
 24 22  1  0
  5  7  1  0
 17 16  2  0
M  END
>  <Name>  (91) 
STOCK7S-26850

>  <id>  (91) 
STOCK7S-26850

>  <index>  (91) 
SCD

>  <donors>  (91) 
2

>  <acceptors>  (91) 
6

>  <rotatable>  (91) 
7

>  <clogp>  (91) 
1.613

>  <rings>  (91) 
2

>  <tpsa>  (91) 
88.6200000000003

>  <iupac_name>  (91) 
ethyl 3-(4-hydroxy-6-methyl-2-oxo-1,2-dihydropyridin-3-yl)-3-(4-methoxyphenyl)propanoate

>  <Num_H_Acceptors_Lipinski>  (91) 
6

>  <Num_H_Donors_Lipinski>  (91) 
2

>  <Molecular_Weight>  (91) 
331.36304

>  <ALogP>  (91) 
1.575

>  <Num_RotatableBonds>  (91) 
7

>  <Molecular_PolarSurfaceArea>  (91) 
84.86

>  <Num_H_Acceptors>  (91) 
5

>  <Num_H_Donors>  (91) 
2

>  <ADMET_Solubility>  (91) 
-2.462

>  <ADMET_Solubility_Level>  (91) 
3

>  <ADMET_Unknown_AlogP98>  (91) 
0

>  <ADMET_BBB>  (91) 
-1.029

>  <ADMET_BBB_Level>  (91) 
3

>  <ADMET_EXT_CYP2D6>  (91) 
-5.38123437339156

>  <ADMET_EXT_CYP2D6#Prediction>  (91) 
false

>  <ADMET_EXT_CYP2D6_Applicability>  (91) 
All properties and OPS components are within expected ranges.
Unknown FCFP_2 feature: 436975416: [*]CC(=C([*])[*])N[*]

>  <ADMET_EXT_CYP2D6_Applicability#MD>  (91) 
13.3809898465778

>  <ADMET_EXT_CYP2D6_Applicability#MDpvalue>  (91) 
0.000121990716240542

>  <ADMET_EXT_Hepatotoxic>  (91) 
-6.82649753315953

>  <ADMET_EXT_Hepatotoxic#Prediction>  (91) 
false

>  <ADMET_EXT_Hepatotoxic_Applicability>  (91) 
All properties and OPS components are within expected ranges.

>  <ADMET_EXT_Hepatotoxic_Applicability#MD>  (91) 
12.0382032545283

>  <ADMET_EXT_Hepatotoxic_Applicability#MDpvalue>  (91) 
0.000138231586943026

>  <ADMET_Absorption_Level>  (91) 
0

>  <ADMET_EXT_PPB>  (91) 
-3.34341922020984

>  <ADMET_EXT_PPB#Prediction>  (91) 
false

>  <ADMET_EXT_PPB_Applicability>  (91) 
All properties and OPS components are within expected ranges.

>  <ADMET_EXT_PPB_Applicability#MD>  (91) 
13.145542454028

>  <ADMET_EXT_PPB_Applicability#MDpvalue>  (91) 
0.00336929489429866

>  <ADMET_AlogP98>  (91) 
1.575

>  <ADMET_PSA_2D>  (91) 
86.087

$$$$
STOCK7S-27149
     RDKit          3D

 25 26  0  0  0  0  0  0  0  0999 V2000
    1.4261   -3.9169   -0.0457 C   0  0  0  0  0  0  0  0  0  0  0  0
    1.5695   -5.4415   -0.0269 C   0  0  0  0  0  0  0  0  0  0  0  0
    0.1380   -3.4759   -0.0056 C   0  0  0  0  0  0  0  0  0  0  0  0
    2.7982   -2.9787   -0.1222 C   0  0  2  0  0  0  0  0  0  0  0  0
    0.5033   -6.2347    0.0281 N   0  0  0  0  0  0  0  0  0  0  0  0
   -0.9714   -4.4225    0.0539 C   0  0  0  0  0  0  0  0  0  0  0  0
   -0.7748   -5.7286    0.0699 C   0  0  0  0  0  0  0  0  0  0  0  0
    2.9739    2.9150    0.0697 C   0  0  0  0  0  0  0  0  0  0  0  0
    4.1148   -3.7402    0.3735 C   0  0  0  0  0  0  0  0  0  0  0  0
    2.8297   -1.3693   -0.0355 C   0  0  0  0  0  0  0  0  0  0  0  0
    5.4535   -3.4160   -0.3289 C   0  0  0  0  0  0  0  0  0  0  0  0
    2.6697   -6.0019   -0.0798 O   0  0  0  0  0  0  0  0  0  0  0  0
    2.9370    1.4590    0.0616 C   0  0  0  0  0  0  0  0  0  0  0  0
    1.9531    3.5515   -0.2178 O   0  0  0  0  0  0  0  0  0  0  0  0
    5.5593   -2.4428   -1.0818 O   0  0  0  0  0  0  0  0  0  0  0  0
   -0.2285   -2.1762   -0.0104 O   0  0  0  0  0  0  0  0  0  0  0  0
    3.9317   -0.7320    0.3761 C   0  0  0  0  0  0  0  0  0  0  0  0
    1.6995   -0.5343   -0.4299 C   0  0  0  0  0  0  0  0  0  0  0  0
    1.7399    0.7909   -0.3739 C   0  0  0  0  0  0  0  0  0  0  0  0
    3.9966    0.7399    0.4213 C   0  0  0  0  0  0  0  0  0  0  0  0
    4.1534    3.5860    0.3617 O   0  0  0  0  0  0  0  0  0  0  0  0
    6.5781   -4.2522   -0.1497 O   0  0  0  0  0  0  0  0  0  0  0  0
   -1.9506   -6.6596    0.1297 C   0  0  0  0  0  0  0  0  0  0  0  0
    3.9351    4.9963    0.2561 C   0  0  0  0  0  0  0  0  0  0  0  0
    6.2832   -5.3693    0.7042 C   0  0  0  0  0  0  0  0  0  0  0  0
  2  1  1  0
  3  1  2  0
  4  1  1  0
  5  2  1  0
  6  3  1  0
  7  6  2  0
  8 13  1  0
  4  9  1  1
 10  4  1  0
 11  9  1  0
 12  2  2  0
 13 19  2  0
 14  8  2  0
 15 11  2  0
 16  3  1  0
 17 10  1  0
 18 10  2  0
 19 18  1  0
 20 17  2  0
 21  8  1  0
 22 11  1  0
 23  7  1  0
 24 21  1  0
 25 22  1  0
  7  5  1  0
 20 13  1  0
M  END
>  <Name>  (92) 
STOCK7S-27149

>  <id>  (92) 
STOCK7S-27149

>  <index>  (92) 
SCD

>  <donors>  (92) 
2

>  <acceptors>  (92) 
7

>  <rotatable>  (92) 
7

>  <clogp>  (92) 
1.134

>  <rings>  (92) 
2

>  <tpsa>  (92) 
105.69

>  <iupac_name>  (92) 
methyl 4-(1-(4-hydroxy-6-methyl-2-oxo-1,2-dihydropyridin-3-yl)-3-methoxy-3-oxopropyl)benzoate

>  <Num_H_Acceptors_Lipinski>  (92) 
7

>  <Num_H_Donors_Lipinski>  (92) 
2

>  <Molecular_Weight>  (92) 
345.34656

>  <ALogP>  (92) 
1.098

>  <Num_RotatableBonds>  (92) 
7

>  <Molecular_PolarSurfaceArea>  (92) 
101.93

>  <Num_H_Acceptors>  (92) 
6

>  <Num_H_Donors>  (92) 
2

>  <ADMET_Solubility>  (92) 
-2.265

>  <ADMET_Solubility_Level>  (92) 
3

>  <ADMET_Unknown_AlogP98>  (92) 
0

>  <ADMET_BBB>  (92) 
-1.451

>  <ADMET_BBB_Level>  (92) 
3

>  <ADMET_EXT_CYP2D6>  (92) 
-6.93799949552218

>  <ADMET_EXT_CYP2D6#Prediction>  (92) 
false

>  <ADMET_EXT_CYP2D6_Applicability>  (92) 
All properties and OPS components are within expected ranges.
Unknown FCFP_2 feature: 436975416: [*]CC(=C([*])[*])N[*]

>  <ADMET_EXT_CYP2D6_Applicability#MD>  (92) 
12.6272642310047

>  <ADMET_EXT_CYP2D6_Applicability#MDpvalue>  (92) 
0.000727143657246078

>  <ADMET_EXT_Hepatotoxic>  (92) 
-5.87935907226124

>  <ADMET_EXT_Hepatotoxic#Prediction>  (92) 
false

>  <ADMET_EXT_Hepatotoxic_Applicability>  (92) 
All properties and OPS components are within expected ranges.

>  <ADMET_EXT_Hepatotoxic_Applicability#MD>  (92) 
14.400015912778

>  <ADMET_EXT_Hepatotoxic_Applicability#MDpvalue>  (92) 
1.03457894520279e-09

>  <ADMET_Absorption_Level>  (92) 
0

>  <ADMET_EXT_PPB>  (92) 
-1.91694053491849

>  <ADMET_EXT_PPB#Prediction>  (92) 
true

>  <ADMET_EXT_PPB_Applicability>  (92) 
All properties and OPS components are within expected ranges.

>  <ADMET_EXT_PPB_Applicability#MD>  (92) 
14.9173269829576

>  <ADMET_EXT_PPB_Applicability#MDpvalue>  (92) 
1.05509177141058e-06

>  <ADMET_AlogP98>  (92) 
1.098

>  <ADMET_PSA_2D>  (92) 
103.388

$$$$
STOCK7S-28607
     RDKit          3D

 20 21  0  0  0  0  0  0  0  0999 V2000
    9.4766   -4.0928    0.3466 C   0  0  0  0  0  0  0  0  0  0  0  0
    8.8634   -3.0208   -0.5620 C   0  0  2  0  0  0  0  0  0  0  0  0
    9.9186   -2.6004    0.5328 C   0  0  2  0  0  0  0  0  0  0  0  0
    7.5294   -2.5281   -0.0406 C   0  0  0  0  0  0  0  0  0  0  0  0
   11.2672   -2.1967   -0.0821 C   0  0  0  0  0  0  0  0  0  0  0  0
    1.4193   -3.1641   -0.3402 N   0  0  0  0  0  0  0  0  0  0  0  0
    7.4994   -1.8102    0.9677 O   0  0  0  0  0  0  0  0  0  0  0  0
   11.8880   -1.2616    0.4375 O   0  0  0  0  0  0  0  0  0  0  0  0
    6.3829   -2.8607   -0.6315 N   0  0  0  0  0  0  0  0  0  0  0  0
   -1.0585   -4.4613    0.2692 O   0  0  0  0  0  0  0  0  0  0  0  0
    8.5096   -4.6641    1.4051 C   0  0  0  0  0  0  0  0  0  0  0  0
   10.3603   -5.1045   -0.4167 C   0  0  0  0  0  0  0  0  0  0  0  0
   11.7909   -2.7843   -1.2305 O   0  0  0  0  0  0  0  0  0  0  0  0
    2.6656   -2.4882    0.0752 C   0  0  0  0  0  0  0  0  0  0  0  0
    3.9219   -3.1509   -0.5442 C   0  0  0  0  0  0  0  0  0  0  0  0
    1.3842   -4.5498    0.1672 C   0  0  0  0  0  0  0  0  0  0  0  0
    0.2698   -2.4205    0.2047 C   0  0  0  0  0  0  0  0  0  0  0  0
    5.1567   -2.3550   -0.0656 C   0  0  0  0  0  0  0  0  0  0  0  0
    0.0516   -5.2102   -0.2626 C   0  0  0  0  0  0  0  0  0  0  0  0
   -1.0390   -3.1130   -0.2301 C   0  0  0  0  0  0  0  0  0  0  0  0
  2  1  1  0
  3  1  1  0
  2  4  1  1
  3  5  1  6
  6 14  1  0
  7  4  2  0
  8  5  2  0
  9  4  1  0
 10 20  1  0
 11  1  1  0
 12  1  1  0
 13  5  1  0
 14 15  1  0
 15 18  1  0
 16  6  1  0
 17  6  1  0
 18  9  1  0
 19 16  1  0
 20 17  1  0
  2  3  1  0
 10 19  1  0
M  END
>  <Name>  (93) 
STOCK7S-28607

>  <id>  (93) 
STOCK7S-28607

>  <index>  (93) 
SC

>  <donors>  (93) 
2

>  <acceptors>  (93) 
6

>  <rotatable>  (93) 
7

>  <clogp>  (93) 
-0.276

>  <rings>  (93) 
2

>  <tpsa>  (93) 
78.87

>  <iupac_name>  (93) 
2,2-dimethyl-3-((3-morpholinopropyl)carbamoyl)cyclopropanecarboxylic acid

>  <Num_H_Acceptors_Lipinski>  (93) 
6

>  <Num_H_Donors_Lipinski>  (93) 
2

>  <Molecular_Weight>  (93) 
284.35136

>  <ALogP>  (93) 
-3.372

>  <Num_RotatableBonds>  (93) 
6

>  <Molecular_PolarSurfaceArea>  (93) 
78.87

>  <Num_H_Acceptors>  (93) 
5

>  <Num_H_Donors>  (93) 
2

>  <ADMET_Solubility>  (93) 
-0.656

>  <ADMET_Solubility_Level>  (93) 
4

>  <ADMET_Unknown_AlogP98>  (93) 
0

>  <ADMET_BBB>  (93) 
-1.532

>  <ADMET_BBB_Level>  (93) 
3

>  <ADMET_EXT_CYP2D6>  (93) 
-4.68525383734768

>  <ADMET_EXT_CYP2D6#Prediction>  (93) 
false

>  <ADMET_EXT_CYP2D6_Applicability>  (93) 
ALogP out of range. Value: -3.372. Training min, max, mean, SD: -0.811, 9.062, 3.2351, 1.51.
OPS PC15 out of range. Value: 3.1676. Training min, max, SD, explained variance: -2.6925, 3.1146, 1.2, 0.0188.

>  <ADMET_EXT_CYP2D6_Applicability#MD>  (93) 
12.8860498730441

>  <ADMET_EXT_CYP2D6_Applicability#MDpvalue>  (93) 
0.000398414760200428

>  <ADMET_EXT_Hepatotoxic>  (93) 
-9.03082986285322

>  <ADMET_EXT_Hepatotoxic#Prediction>  (93) 
false

>  <ADMET_EXT_Hepatotoxic_Applicability>  (93) 
All properties and OPS components are within expected ranges.

>  <ADMET_EXT_Hepatotoxic_Applicability#MD>  (93) 
10.2014419233635

>  <ADMET_EXT_Hepatotoxic_Applicability#MDpvalue>  (93) 
0.0570747771680109

>  <ADMET_Absorption_Level>  (93) 
0

>  <ADMET_EXT_PPB>  (93) 
-6.12546757864765

>  <ADMET_EXT_PPB#Prediction>  (93) 
false

>  <ADMET_EXT_PPB_Applicability>  (93) 
All properties and OPS components are within expected ranges.

>  <ADMET_EXT_PPB_Applicability#MD>  (93) 
12.3326384088242

>  <ADMET_EXT_PPB_Applicability#MDpvalue>  (93) 
0.0422362887601763

>  <ADMET_AlogP98>  (93) 
-0.337

>  <ADMET_PSA_2D>  (93) 
80.509

$$$$
STOCK7S-30714
     RDKit          3D

 28 31  0  0  0  0  0  0  0  0999 V2000
    5.1316   -5.3434   -0.0444 C   0  0  0  0  0  0  0  0  0  0  0  0
    4.5096   -4.2242    0.0036 N   0  0  0  0  0  0  0  0  0  0  0  0
    4.2272   -6.4371   -0.0491 N   0  0  0  0  0  0  0  0  0  0  0  0
   15.1054   -9.6488   -0.3861 N   0  0  0  0  0  0  0  0  0  0  0  0
   14.0669   -9.0159   -0.4099 N   0  0  0  0  0  0  0  0  0  0  0  0
   16.1431   -8.8234   -0.1052 N   0  0  0  0  0  0  0  0  0  0  0  0
   14.3445   -7.7536   -0.1406 N   0  0  0  0  0  0  0  0  0  0  0  0
    2.9917   -5.9176   -0.0119 C   0  0  0  0  0  0  0  0  0  0  0  0
    3.1252   -4.5389    0.0244 C   0  0  0  0  0  0  0  0  0  0  0  0
   15.6914   -7.6460    0.0455 C   0  0  0  0  0  0  0  0  0  0  0  0
    6.6180   -5.5193   -0.1068 C   0  0  0  0  0  0  0  0  0  0  0  0
   11.8596   -6.9175    0.0089 C   0  0  0  0  0  0  0  0  0  0  0  0
    9.5906   -5.4825    0.2083 C   0  0  0  0  0  0  0  0  0  0  0  0
   13.4112   -6.6089   -0.0914 C   0  0  0  0  0  0  0  0  0  0  0  0
   11.1277   -5.4870    0.0404 C   0  0  0  0  0  0  0  0  0  0  0  0
    9.0190   -6.4982    0.6095 O   0  0  0  0  0  0  0  0  0  0  0  0
    8.8939   -4.3502   -0.0471 N   0  0  0  0  0  0  0  0  0  0  0  0
    7.4114   -4.1920    0.0733 C   0  0  0  0  0  0  0  0  0  0  0  0
    4.5723   -7.8274   -0.0815 C   0  0  0  0  0  0  0  0  0  0  0  0
    1.8115   -6.5407   -0.0118 C   0  0  0  0  0  0  0  0  0  0  0  0
    2.0900   -3.7223    0.0596 C   0  0  0  0  0  0  0  0  0  0  0  0
   11.4601   -7.6876    1.3247 C   0  0  0  0  0  0  0  0  0  0  0  0
   11.4897   -7.8069   -1.2439 C   0  0  0  0  0  0  0  0  0  0  0  0
    0.6122   -5.6811    0.0288 C   0  0  0  0  0  0  0  0  0  0  0  0
    0.7397   -4.3449    0.0627 C   0  0  0  0  0  0  0  0  0  0  0  0
   10.2061   -8.5699   -0.9986 C   0  0  0  0  0  0  0  0  0  0  0  0
   11.6450   -9.1771    1.1313 C   0  0  0  0  0  0  0  0  0  0  0  0
   10.5292   -9.6602    0.1056 C   0  0  0  0  0  0  0  0  0  0  0  0
  2  1  2  0
  3  1  1  0
  4  5  2  0
  5  7  1  0
  6 10  2  0
  7 14  1  0
  8  3  1  0
  9  2  1  0
 10  7  1  0
 11  1  1  0
 12 15  1  0
 13 17  1  0
 14 12  1  0
 15 13  1  0
 16 13  2  0
 17 18  1  0
 18 11  1  0
 19  3  1  0
 20  8  2  0
 21  9  2  0
 12 22  1  0
 12 23  1  0
 24 20  1  0
 25 21  1  0
 26 23  1  0
 27 22  1  0
 28 26  1  0
  8  9  1  0
 24 25  2  0
 28 27  1  0
  6  4  1  0
M  END
>  <Name>  (94) 
STOCK7S-30714

>  <id>  (94) 
STOCK7S-30714

>  <index>  (94) 
SC

>  <donors>  (94) 
1

>  <acceptors>  (94) 
8

>  <rotatable>  (94) 
8

>  <clogp>  (94) 
2.589

>  <rings>  (94) 
4

>  <tpsa>  (94) 
90.5200000000002

>  <iupac_name>  (94) 
2-(1-((1H-tetrazol-1-yl)methyl)cyclohexyl)-N-(2-(1-methyl-1H-benzo[d]imidazol-2-yl)ethyl)acetamide

>  <Num_H_Acceptors_Lipinski>  (94) 
8

>  <Num_H_Donors_Lipinski>  (94) 
1

>  <Molecular_Weight>  (94) 
381.47468

>  <ALogP>  (94) 
2.105

>  <Num_RotatableBonds>  (94) 
7

>  <Molecular_PolarSurfaceArea>  (94) 
90.52

>  <Num_H_Acceptors>  (94) 
5

>  <Num_H_Donors>  (94) 
1

>  <ADMET_Solubility>  (94) 
-3.95

>  <ADMET_Solubility_Level>  (94) 
3

>  <ADMET_Unknown_AlogP98>  (94) 
0

>  <ADMET_BBB>  (94) 
-0.754

>  <ADMET_BBB_Level>  (94) 
3

>  <ADMET_EXT_CYP2D6>  (94) 
-8.93031385288239

>  <ADMET_EXT_CYP2D6#Prediction>  (94) 
false

>  <ADMET_EXT_CYP2D6_Applicability>  (94) 
All properties and OPS components are within expected ranges.

>  <ADMET_EXT_CYP2D6_Applicability#MD>  (94) 
13.44514721758

>  <ADMET_EXT_CYP2D6_Applicability#MDpvalue>  (94) 
0.000104343964369808

>  <ADMET_EXT_Hepatotoxic>  (94) 
-6.03720434253864

>  <ADMET_EXT_Hepatotoxic#Prediction>  (94) 
false

>  <ADMET_EXT_Hepatotoxic_Applicability>  (94) 
All properties and OPS components are within expected ranges.

>  <ADMET_EXT_Hepatotoxic_Applicability#MD>  (94) 
11.3491799006932

>  <ADMET_EXT_Hepatotoxic_Applicability#MDpvalue>  (94) 
0.00192545278327182

>  <ADMET_Absorption_Level>  (94) 
0

>  <ADMET_EXT_PPB>  (94) 
0.859368769746029

>  <ADMET_EXT_PPB#Prediction>  (94) 
true

>  <ADMET_EXT_PPB_Applicability>  (94) 
All properties and OPS components are within expected ranges.

>  <ADMET_EXT_PPB_Applicability#MD>  (94) 
13.5702704656881

>  <ADMET_EXT_PPB_Applicability#MDpvalue>  (94) 
0.000662804710288273

>  <ADMET_AlogP98>  (94) 
2.454

>  <ADMET_PSA_2D>  (94) 
85.851

$$$$
STOCK7S-31672
     RDKit          3D

 25 27  0  0  0  0  0  0  0  0999 V2000
    9.0761   -4.7737    0.1042 C   0  0  0  0  0  0  0  0  0  0  0  0
    7.6267   -2.7305   -0.2176 C   0  0  0  0  0  0  0  0  0  0  0  0
    8.9549   -3.2961   -0.1235 C   0  0  0  0  0  0  0  0  0  0  0  0
    6.5534   -3.4975   -0.0611 C   0  0  0  0  0  0  0  0  0  0  0  0
    4.0139   -3.6638    0.2154 N   0  0  0  0  0  0  0  0  0  0  0  0
    7.9430   -5.4619    0.2506 C   0  0  0  0  0  0  0  0  0  0  0  0
    6.7000   -4.8474    0.1969 O   0  0  0  0  0  0  0  0  0  0  0  0
    1.5486   -3.6896    0.4154 C   0  0  2  0  0  0  0  0  0  0  0  0
   10.3263   -5.5076    0.1728 O   0  0  0  0  0  0  0  0  0  0  0  0
    2.7863   -2.8538    0.0218 C   0  0  0  0  0  0  0  0  0  0  0  0
    5.1797   -2.8312   -0.1839 C   0  0  0  0  0  0  0  0  0  0  0  0
    1.4718   -4.9243   -0.3097 O   0  0  0  0  0  0  0  0  0  0  0  0
    9.9208   -2.5367   -0.2501 O   0  0  0  0  0  0  0  0  0  0  0  0
    0.2663   -2.9129    0.2353 C   0  0  0  0  0  0  0  0  0  0  0  0
   13.8712   -5.0695   -0.0428 O   0  0  0  0  0  0  0  0  0  0  0  0
   12.7522   -5.5906    0.0355 C   0  0  0  0  0  0  0  0  0  0  0  0
   11.5247   -4.7243    0.0173 C   0  0  0  0  0  0  0  0  0  0  0  0
    2.6707   -5.6966   -0.1248 C   0  0  0  0  0  0  0  0  0  0  0  0
    3.8985   -4.8856   -0.6056 C   0  0  0  0  0  0  0  0  0  0  0  0
    0.2688   -1.4445    0.2504 C   0  0  0  0  0  0  0  0  0  0  0  0
   -0.8773   -3.5712    0.0497 C   0  0  0  0  0  0  0  0  0  0  0  0
   12.6265   -7.0823    0.1318 C   0  0  0  0  0  0  0  0  0  0  0  0
   -2.1305   -2.8352   -0.1354 C   0  0  0  0  0  0  0  0  0  0  0  0
   -0.8715   -0.7751    0.0783 C   0  0  0  0  0  0  0  0  0  0  0  0
   -2.1284   -1.5035   -0.1231 C   0  0  0  0  0  0  0  0  0  0  0  0
  2  3  1  0
  3  1  1  0
  4  7  1  0
  5 11  1  0
  6  1  2  0
  7  6  1  0
  8 10  1  0
  9  1  1  0
 10  5  1  0
 11  4  1  0
 12 18  1  0
 13  3  2  0
  8 14  1  6
 15 16  2  0
 16 17  1  0
 17  9  1  0
 18 19  1  0
 19  5  1  0
 20 14  2  0
 21 14  1  0
 22 16  1  0
 23 21  2  0
 24 20  1  0
 25 23  1  0
  2  4  2  0
 12  8  1  0
 25 24  2  0
M  END
>  <Name>  (95) 
STOCK7S-31672

>  <id>  (95) 
STOCK7S-31672

>  <index>  (95) 
SC

>  <donors>  (95) 
0

>  <acceptors>  (95) 
6

>  <rotatable>  (95) 
6

>  <clogp>  (95) 
0.615

>  <rings>  (95) 
3

>  <tpsa>  (95) 
68.98

>  <iupac_name>  (95) 
5-(2-oxopropoxy)-2-((2-phenylmorpholino)methyl)-4H-pyran-4-one

>  <Num_H_Acceptors_Lipinski>  (95) 
6

>  <Num_H_Donors_Lipinski>  (95) 
0

>  <Molecular_Weight>  (95) 
343.37374

>  <ALogP>  (95) 
0.675

>  <Num_RotatableBonds>  (95) 
6

>  <Molecular_PolarSurfaceArea>  (95) 
65.06

>  <Num_H_Acceptors>  (95) 
6

>  <Num_H_Donors>  (95) 
0

>  <ADMET_Solubility>  (95) 
-1.91

>  <ADMET_Solubility_Level>  (95) 
4

>  <ADMET_Unknown_AlogP98>  (95) 
0

>  <ADMET_BBB>  (95) 
-0.97

>  <ADMET_BBB_Level>  (95) 
3

>  <ADMET_EXT_CYP2D6>  (95) 
-0.272320274903488

>  <ADMET_EXT_CYP2D6#Prediction>  (95) 
false

>  <ADMET_EXT_CYP2D6_Applicability>  (95) 
All properties and OPS components are within expected ranges.

>  <ADMET_EXT_CYP2D6_Applicability#MD>  (95) 
10.1342193619905

>  <ADMET_EXT_CYP2D6_Applicability#MDpvalue>  (95) 
0.0958249899472821

>  <ADMET_EXT_Hepatotoxic>  (95) 
-11.7092621738815

>  <ADMET_EXT_Hepatotoxic#Prediction>  (95) 
false

>  <ADMET_EXT_Hepatotoxic_Applicability>  (95) 
All properties and OPS components are within expected ranges.

>  <ADMET_EXT_Hepatotoxic_Applicability#MD>  (95) 
11.8923612405034

>  <ADMET_EXT_Hepatotoxic_Applicability#MDpvalue>  (95) 
0.000249924577425638

>  <ADMET_Absorption_Level>  (95) 
0

>  <ADMET_EXT_PPB>  (95) 
-5.9234051545175

>  <ADMET_EXT_PPB#Prediction>  (95) 
false

>  <ADMET_EXT_PPB_Applicability>  (95) 
OPS PC25 out of range. Value: -3.0319. Training min, max, SD, explained variance: -2.9886, 4.7328, 1.181, 0.0115.

>  <ADMET_EXT_PPB_Applicability#MD>  (95) 
12.0742849291536

>  <ADMET_EXT_PPB_Applicability#MDpvalue>  (95) 
0.0799857940726528

>  <ADMET_AlogP98>  (95) 
0.675

>  <ADMET_PSA_2D>  (95) 
64.744

$$$$
STOCK7S-35693
     RDKit          3D

 25 27  0  0  0  0  0  0  0  0999 V2000
   10.0167   -4.0432   -0.0224 C   0  0  0  0  0  0  0  0  0  0  0  0
   10.0303   -2.7121   -0.0144 C   0  0  0  0  0  0  0  0  0  0  0  0
   11.2512   -2.1005    0.0044 N   0  0  0  0  0  0  0  0  0  0  0  0
   11.2554   -4.7774   -0.0101 N   0  0  0  0  0  0  0  0  0  0  0  0
    8.7356   -4.7395   -0.0461 C   0  0  0  0  0  0  0  0  0  0  0  0
   12.3594   -2.8185    0.0115 C   0  0  0  0  0  0  0  0  0  0  0  0
    7.5402   -3.9991   -0.0643 N   0  0  0  0  0  0  0  0  0  0  0  0
   12.3371   -4.2073    0.0053 N   0  0  0  0  0  0  0  0  0  0  0  0
    8.7848   -1.9518   -0.0281 C   0  0  0  0  0  0  0  0  0  0  0  0
   11.5204   -0.7919    0.0119 N   0  0  0  0  0  0  0  0  0  0  0  0
    7.6109   -2.5862   -0.0526 C   0  0  0  0  0  0  0  0  0  0  0  0
   13.4038   -2.0106    0.0238 C   0  0  0  0  0  0  0  0  0  0  0  0
    6.2579   -4.7345   -0.1124 C   0  0  0  0  0  0  0  0  0  0  0  0
    4.9586   -3.9214    0.0556 C   0  0  0  0  0  0  0  0  0  0  0  0
   12.7981   -0.6590    0.0237 C   0  0  0  0  0  0  0  0  0  0  0  0
    8.7026   -5.9750   -0.0599 O   0  0  0  0  0  0  0  0  0  0  0  0
    4.9616   -2.7071    0.2843 O   0  0  0  0  0  0  0  0  0  0  0  0
    3.7842   -4.5495   -0.0309 N   0  0  0  0  0  0  0  0  0  0  0  0
    1.3348   -4.7243   -0.0980 C   0  0  0  0  0  0  0  0  0  0  0  0
   -1.1115   -4.7725   -0.0602 O   0  0  0  0  0  0  0  0  0  0  0  0
    2.5573   -3.8096    0.1487 C   0  0  0  0  0  0  0  0  0  0  0  0
    0.0330   -3.9353    0.1825 C   0  0  0  0  0  0  0  0  0  0  0  0
   -2.3270   -4.0882    0.3074 C   0  0  0  0  0  0  0  0  0  0  0  0
   -3.5339   -5.0130    0.0559 C   0  0  0  0  0  0  0  0  0  0  0  0
   -2.4970   -2.7943   -0.5179 C   0  0  0  0  0  0  0  0  0  0  0  0
  2  1  2  0
  3  2  1  0
  4  1  1  0
  5  1  1  0
  6  8  1  0
  7  5  1  0
  8  4  2  0
  9  2  1  0
 10  3  1  0
 11  7  1  0
 12  6  2  0
 13  7  1  0
 14 13  1  0
 15 10  2  0
 16  5  2  0
 17 14  2  0
 18 14  1  0
 19 21  1  0
 20 22  1  0
 21 18  1  0
 22 19  1  0
 23 20  1  0
 24 23  1  0
 25 23  1  0
  9 11  2  0
  3  6  1  0
 15 12  1  0
M  END
>  <Name>  (96) 
STOCK7S-35693

>  <id>  (96) 
STOCK7S-35693

>  <index>  (96) 
SC

>  <donors>  (96) 
1

>  <acceptors>  (96) 
9

>  <rotatable>  (96) 
8

>  <clogp>  (96) 
-0.016

>  <rings>  (96) 
3

>  <tpsa>  (96) 
103.41

>  <iupac_name>  (96) 
N-(3-isopropoxypropyl)-2-(6-oxopyrazolo[5,1-c]pyrido[4,3-e][1,2,4]triazin-7(6H)-yl)acetamide

>  <Num_H_Acceptors_Lipinski>  (96) 
9

>  <Num_H_Donors_Lipinski>  (96) 
1

>  <Molecular_Weight>  (96) 
344.3684

>  <ALogP>  (96) 
-0.687

>  <Num_RotatableBonds>  (96) 
7

>  <Molecular_PolarSurfaceArea>  (96) 
101.72

>  <Num_H_Acceptors>  (96) 
6

>  <Num_H_Donors>  (96) 
1

>  <ADMET_Solubility>  (96) 
-1.145

>  <ADMET_Solubility_Level>  (96) 
4

>  <ADMET_Unknown_AlogP98>  (96) 
0

>  <ADMET_BBB>  (96) 
-1.849

>  <ADMET_BBB_Level>  (96) 
3

>  <ADMET_EXT_CYP2D6>  (96) 
-10.1039288285584

>  <ADMET_EXT_CYP2D6#Prediction>  (96) 
false

>  <ADMET_EXT_CYP2D6_Applicability>  (96) 
All properties and OPS components are within expected ranges.
Unknown FCFP_2 feature: -332197802: [*][c](:[*]):n1:n:[*]:[*]:[c]:1:[*]
Unknown FCFP_2 feature: -1564473960: [*][c](:[*]):[c]1:n:[*]:[*]:n:1:[*]

>  <ADMET_EXT_CYP2D6_Applicability#MD>  (96) 
17.5845348049576

>  <ADMET_EXT_CYP2D6_Applicability#MDpvalue>  (96) 
2.15523631064301e-09

>  <ADMET_EXT_Hepatotoxic>  (96) 
-4.52985431139871

>  <ADMET_EXT_Hepatotoxic#Prediction>  (96) 
false

>  <ADMET_EXT_Hepatotoxic_Applicability>  (96) 
All properties and OPS components are within expected ranges.
Unknown FCFP_2 feature: -332197802: [*][c](:[*]):n1:n:[*]:[*]:[c]:1:[*]

>  <ADMET_EXT_Hepatotoxic_Applicability#MD>  (96) 
15.3944878758841

>  <ADMET_EXT_Hepatotoxic_Applicability#MDpvalue>  (96) 
2.59224136581971e-12

>  <ADMET_Absorption_Level>  (96) 
0

>  <ADMET_EXT_PPB>  (96) 
-7.02724517695122

>  <ADMET_EXT_PPB#Prediction>  (96) 
false

>  <ADMET_EXT_PPB_Applicability>  (96) 
All properties and OPS components are within expected ranges.

>  <ADMET_EXT_PPB_Applicability#MD>  (96) 
13.8561727998704

>  <ADMET_EXT_PPB_Applicability#MDpvalue>  (96) 
0.000198096075908362

>  <ADMET_AlogP98>  (96) 
-0.426

>  <ADMET_PSA_2D>  (96) 
98.825

$$$$
STOCK7S-37681
     RDKit          3D

 26 29  0  0  0  0  0  0  0  0999 V2000
    5.0270   -4.9249   -0.1012 C   0  0  0  0  0  0  0  0  0  0  0  0
   10.2987   -2.6099   -0.1618 C   0  0  0  0  0  0  0  0  0  0  0  0
    0.1231   -5.1552   -0.0916 N   0  0  0  0  0  0  0  0  0  0  0  0
    6.3493   -4.3251    0.0037 N   0  0  0  0  0  0  0  0  0  0  0  0
    8.9990   -3.2304   -0.0337 N   0  0  0  0  0  0  0  0  0  0  0  0
    1.2503   -4.3494   -0.0203 C   0  0  0  0  0  0  0  0  0  0  0  0
    3.6839   -4.2138   -0.0023 C   0  0  0  0  0  0  0  0  0  0  0  0
   11.6422   -3.2759    0.0096 C   0  0  0  0  0  0  0  0  0  0  0  0
   -1.0973   -4.6325   -0.0362 C   0  0  0  0  0  0  0  0  0  0  0  0
   -0.0984   -2.4339    0.1785 O   0  0  0  0  0  0  0  0  0  0  0  0
    2.5843   -4.9626   -0.0829 C   0  0  0  0  0  0  0  0  0  0  0  0
    1.1256   -3.0310    0.1207 C   0  0  0  0  0  0  0  0  0  0  0  0
   12.8084   -2.5906   -0.1378 O   0  0  0  0  0  0  0  0  0  0  0  0
    7.8641   -2.4047   -0.3253 C   0  0  0  0  0  0  0  0  0  0  0  0
    8.7770   -4.6081    0.3763 C   0  0  0  0  0  0  0  0  0  0  0  0
    7.4809   -5.1798   -0.2510 C   0  0  0  0  0  0  0  0  0  0  0  0
    6.5943   -2.9417    0.3565 C   0  0  0  0  0  0  0  0  0  0  0  0
    4.9897   -6.1323   -0.3655 O   0  0  0  0  0  0  0  0  0  0  0  0
   10.3115   -1.4184   -0.4903 O   0  0  0  0  0  0  0  0  0  0  0  0
   11.9093   -4.5481    0.2962 C   0  0  0  0  0  0  0  0  0  0  0  0
    3.5204   -2.7541    0.1530 C   0  0  0  0  0  0  0  0  0  0  0  0
   13.8507   -3.4557    0.0637 C   0  0  0  0  0  0  0  0  0  0  0  0
   -2.0805   -5.3778   -0.1018 O   0  0  0  0  0  0  0  0  0  0  0  0
   13.3538   -4.6625    0.3318 C   0  0  0  0  0  0  0  0  0  0  0  0
   -1.3059   -3.1485    0.1081 C   0  0  0  0  0  0  0  0  0  0  0  0
    2.3143   -2.2009    0.2020 C   0  0  0  0  0  0  0  0  0  0  0  0
  2  5  1  0
  3  6  1  0
  4  1  1  0
  5 14  1  0
  6 11  2  0
  7  1  1  0
  8  2  1  0
  9  3  1  0
 10 12  1  0
 11  7  1  0
 12 26  2  0
 13  8  1  0
 14 17  1  0
 15 16  1  0
 16  4  1  0
 17  4  1  0
 18  1  2  0
 19  2  2  0
 20  8  2  0
 21  7  2  0
 22 13  1  0
 23  9  2  0
 24 20  1  0
 25 10  1  0
 26 21  1  0
 15  5  1  0
 12  6  1  0
 25  9  1  0
 24 22  2  0
M  END
>  <Name>  (97) 
STOCK7S-37681

>  <id>  (97) 
STOCK7S-37681

>  <index>  (97) 
SC

>  <donors>  (97) 
1

>  <acceptors>  (97) 
8

>  <rotatable>  (97) 
4

>  <clogp>  (97) 
0.302

>  <rings>  (97) 
4

>  <tpsa>  (97) 
92.09

>  <iupac_name>  (97) 
6-(4-(furan-2-carbonyl)piperazine-1-carbonyl)-2H-benzo[b][1,4]oxazin-3(4H)-one

>  <Num_H_Acceptors_Lipinski>  (97) 
8

>  <Num_H_Donors_Lipinski>  (97) 
1

>  <Molecular_Weight>  (97) 
355.34468

>  <ALogP>  (97) 
0.31

>  <Num_RotatableBonds>  (97) 
2

>  <Molecular_PolarSurfaceArea>  (97) 
92.09

>  <Num_H_Acceptors>  (97) 
4

>  <Num_H_Donors>  (97) 
1

>  <ADMET_Solubility>  (97) 
-2.24

>  <ADMET_Solubility_Level>  (97) 
3

>  <ADMET_Unknown_AlogP98>  (97) 
0

>  <ADMET_BBB>  (97) 
-1.528

>  <ADMET_BBB_Level>  (97) 
3

>  <ADMET_EXT_CYP2D6>  (97) 
-12.0357015527935

>  <ADMET_EXT_CYP2D6#Prediction>  (97) 
false

>  <ADMET_EXT_CYP2D6_Applicability>  (97) 
All properties and OPS components are within expected ranges.

>  <ADMET_EXT_CYP2D6_Applicability#MD>  (97) 
14.0585791486322

>  <ADMET_EXT_CYP2D6_Applicability#MDpvalue>  (97) 
2.27797436749366e-05

>  <ADMET_EXT_Hepatotoxic>  (97) 
-4.68277204682624

>  <ADMET_EXT_Hepatotoxic#Prediction>  (97) 
false

>  <ADMET_EXT_Hepatotoxic_Applicability>  (97) 
All properties and OPS components are within expected ranges.

>  <ADMET_EXT_Hepatotoxic_Applicability#MD>  (97) 
11.1461299696555

>  <ADMET_EXT_Hepatotoxic_Applicability#MDpvalue>  (97) 
0.00385393492625551

>  <ADMET_Absorption_Level>  (97) 
0

>  <ADMET_EXT_PPB>  (97) 
-12.273190892976

>  <ADMET_EXT_PPB#Prediction>  (97) 
false

>  <ADMET_EXT_PPB_Applicability>  (97) 
All properties and OPS components are within expected ranges.

>  <ADMET_EXT_PPB_Applicability#MD>  (97) 
14.5666521778827

>  <ADMET_EXT_PPB_Applicability#MDpvalue>  (97) 
6.7556050286532e-06

>  <ADMET_AlogP98>  (97) 
0.31

>  <ADMET_PSA_2D>  (97) 
92.902

$$$$
STOCK7S-39253
     RDKit          3D

 23 25  0  0  0  0  0  0  0  0999 V2000
    7.0640   -7.9835   -0.0746 C   0  0  0  0  0  0  0  0  0  0  0  0
    5.8297   -8.7148    0.0351 N   0  0  0  0  0  0  0  0  0  0  0  0
    7.0151   -6.6450   -0.1783 C   0  0  0  0  0  0  0  0  0  0  0  0
    4.5663   -8.0451    0.0190 C   0  0  0  0  0  0  0  0  0  0  0  0
    4.5397   -6.7193   -0.0537 C   0  0  0  0  0  0  0  0  0  0  0  0
    5.7482   -5.9671   -0.1454 C   0  0  0  0  0  0  0  0  0  0  0  0
    8.3948   -8.8034   -0.0997 C   0  0  0  0  0  0  0  0  0  0  0  0
    3.2525   -8.8747    0.0900 C   0  0  0  0  0  0  0  0  0  0  0  0
    9.6896   -8.0448   -0.1755 N   0  0  0  0  0  0  0  0  0  0  0  0
    1.9645   -8.0893    0.2748 N   0  0  0  0  0  0  0  0  0  0  0  0
    5.7034   -4.7363   -0.2225 O   0  0  0  0  0  0  0  0  0  0  0  0
   12.6522   -7.4048    0.4751 S   0  0  0  0  0  0  0  0  0  0  0  0
    8.1457   -5.8691   -0.3244 O   0  0  0  0  0  0  0  0  0  0  0  0
   -0.7699   -7.3733   -0.2774 O   0  0  0  0  0  0  0  0  0  0  0  0
    5.8652  -10.1522    0.1375 C   0  0  0  0  0  0  0  0  0  0  0  0
   10.7553   -9.0262   -0.5703 C   0  0  0  0  0  0  0  0  0  0  0  0
   10.0435   -7.3786    1.1462 C   0  0  0  0  0  0  0  0  0  0  0  0
    0.8581   -9.0372    0.5046 C   0  0  0  0  0  0  0  0  0  0  0  0
    1.5762   -7.2379   -0.8924 C   0  0  0  0  0  0  0  0  0  0  0  0
   12.0848   -8.3273   -0.9399 C   0  0  0  0  0  0  0  0  0  0  0  0
   11.2543   -6.4247    0.9817 C   0  0  0  0  0  0  0  0  0  0  0  0
    0.2985   -6.4501   -0.5303 C   0  0  0  0  0  0  0  0  0  0  0  0
   -0.4376   -8.2469    0.8163 C   0  0  0  0  0  0  0  0  0  0  0  0
  2  1  1  0
  3  1  2  0
  4  2  1  0
  5  6  1  0
  6  3  1  0
  7  1  1  0
  8  4  1  0
  9  7  1  0
 10  8  1  0
 11  6  2  0
 12 21  1  0
 13  3  1  0
 14 22  1  0
 15  2  1  0
 16  9  1  0
 17  9  1  0
 18 10  1  0
 19 10  1  0
 20 16  1  0
 21 17  1  0
 22 19  1  0
 23 18  1  0
  4  5  2  0
 12 20  1  0
 23 14  1  0
M  END
>  <Name>  (98) 
STOCK7S-39253

>  <id>  (98) 
STOCK7S-39253

>  <index>  (98) 
SC

>  <donors>  (98) 
1

>  <acceptors>  (98) 
6

>  <rotatable>  (98) 
4

>  <clogp>  (98) 
-1.173

>  <rings>  (98) 
3

>  <tpsa>  (98) 
57.94

>  <iupac_name>  (98) 
3-hydroxy-1-methyl-6-(morpholinomethyl)-2-(thiomorpholinomethyl)pyridin-4(1H)-one

>  <Num_H_Acceptors_Lipinski>  (98) 
6

>  <Num_H_Donors_Lipinski>  (98) 
1

>  <Molecular_Weight>  (98) 
339.453

>  <ALogP>  (98) 
0.074

>  <Num_RotatableBonds>  (98) 
4

>  <Molecular_PolarSurfaceArea>  (98) 
81.55

>  <Num_H_Acceptors>  (98) 
7

>  <Num_H_Donors>  (98) 
1

>  <ADMET_Solubility>  (98) 
-1.372

>  <ADMET_Solubility_Level>  (98) 
4

>  <ADMET_Unknown_AlogP98>  (98) 
0

>  <ADMET_BBB>  (98) 
-1.035

>  <ADMET_BBB_Level>  (98) 
3

>  <ADMET_EXT_CYP2D6>  (98) 
-4.48120546515079

>  <ADMET_EXT_CYP2D6#Prediction>  (98) 
false

>  <ADMET_EXT_CYP2D6_Applicability>  (98) 
All properties and OPS components are within expected ranges.

>  <ADMET_EXT_CYP2D6_Applicability#MD>  (98) 
12.6732346502977

>  <ADMET_EXT_CYP2D6_Applicability#MDpvalue>  (98) 
0.000654057999567948

>  <ADMET_EXT_Hepatotoxic>  (98) 
-6.8781008697506

>  <ADMET_EXT_Hepatotoxic#Prediction>  (98) 
false

>  <ADMET_EXT_Hepatotoxic_Applicability>  (98) 
OPS PC17 out of range. Value: -3.3712. Training min, max, SD, explained variance: -3.1271, 3.8227, 1.131, 0.0159.

>  <ADMET_EXT_Hepatotoxic_Applicability#MD>  (98) 
10.1777190593521

>  <ADMET_EXT_Hepatotoxic_Applicability#MDpvalue>  (98) 
0.0603565397142971

>  <ADMET_Absorption_Level>  (98) 
0

>  <ADMET_EXT_PPB>  (98) 
-10.4023723184202

>  <ADMET_EXT_PPB#Prediction>  (98) 
false

>  <ADMET_EXT_PPB_Applicability>  (98) 
All properties and OPS components are within expected ranges.

>  <ADMET_EXT_PPB_Applicability#MD>  (98) 
14.1449807036172

>  <ADMET_EXT_PPB_Applicability#MDpvalue>  (98) 
5.34680586878081e-05

>  <ADMET_AlogP98>  (98) 
0.074

>  <ADMET_PSA_2D>  (98) 
57.103

$$$$
STOCK7S-41705
     RDKit          3D

 29 32  0  0  0  0  0  0  0  0999 V2000
   -0.7183   -5.7953    0.0423 N   0  0  0  0  0  0  0  0  0  0  0  0
   -1.9557   -5.0820    0.0395 C   0  0  0  0  0  0  0  0  0  0  0  0
   12.0891   -5.8494   -0.0143 N   0  0  0  0  0  0  0  0  0  0  0  0
   12.2797   -3.7367    0.0276 N   0  0  0  0  0  0  0  0  0  0  0  0
   10.9236   -4.0563    0.0099 N   0  0  0  0  0  0  0  0  0  0  0  0
   12.9309   -4.8325    0.0125 C   0  0  0  0  0  0  0  0  0  0  0  0
   10.8195   -5.3305   -0.0154 C   0  0  0  0  0  0  0  0  0  0  0  0
   -0.9528   -7.2772    0.0055 C   0  0  0  0  0  0  0  0  0  0  0  0
   -3.0173   -6.0132   -0.0014 C   0  0  0  0  0  0  0  0  0  0  0  0
    0.6163   -5.1090    0.1057 C   0  0  1  0  0  0  0  0  0  0  0  0
   -2.4851   -7.3025   -0.0198 C   0  0  0  0  0  0  0  0  0  0  0  0
    1.9100   -5.9710    0.0238 C   0  0  0  0  0  0  0  0  0  0  0  0
   12.5025   -7.1746   -0.0332 C   0  0  0  0  0  0  0  0  0  0  0  0
   -2.0937   -3.8559    0.0789 O   0  0  0  0  0  0  0  0  0  0  0  0
   14.3658   -5.0240    0.0221 C   0  0  0  0  0  0  0  0  0  0  0  0
    1.8706   -7.2012   -0.0785 O   0  0  0  0  0  0  0  0  0  0  0  0
   13.8206   -7.4177   -0.0247 C   0  0  0  0  0  0  0  0  0  0  0  0
   14.8028   -6.2867    0.0040 C   0  0  0  0  0  0  0  0  0  0  0  0
    3.1129   -5.3627    0.0573 N   0  0  0  0  0  0  0  0  0  0  0  0
    9.5165   -6.1320   -0.0423 C   0  0  0  0  0  0  0  0  0  0  0  0
   -4.3251   -5.7653   -0.0181 C   0  0  0  0  0  0  0  0  0  0  0  0
   -3.2625   -8.3789   -0.0539 C   0  0  0  0  0  0  0  0  0  0  0  0
    0.7062   -4.0275   -0.9900 C   0  0  0  0  0  0  0  0  0  0  0  0
    4.3547   -6.1425   -0.0194 C   0  0  0  0  0  0  0  0  0  0  0  0
    8.2461   -5.2097   -0.0028 C   0  0  0  0  0  0  0  0  0  0  0  0
    5.6313   -5.2201    0.0214 C   0  0  0  0  0  0  0  0  0  0  0  0
    6.9415   -6.0902   -0.0394 C   0  0  0  0  0  0  0  0  0  0  0  0
   -5.2351   -6.9285   -0.0580 C   0  0  0  0  0  0  0  0  0  0  0  0
   -4.7317   -8.1707   -0.0740 C   0  0  0  0  0  0  0  0  0  0  0  0
  2  1  1  0
  3  7  1  0
  4  5  1  0
  5  7  2  0
  6  3  1  0
  7 20  1  0
  8  1  1  0
  9  2  1  0
 10  1  1  0
 11  8  1  0
 12 10  1  0
 13  3  1  0
 14  2  2  0
 15  6  1  0
 16 12  2  0
 17 13  2  0
 18 17  1  0
 19 12  1  0
 20 25  1  0
 21  9  2  0
 22 11  2  0
 10 23  1  6
 24 19  1  0
 25 27  1  0
 26 24  1  0
 27 26  1  0
 28 21  1  0
 29 22  1  0
  9 11  1  0
 28 29  2  0
  6  4  2  0
 18 15  2  0
M  END
>  <Name>  (99) 
STOCK7S-41705

>  <id>  (99) 
STOCK7S-41705

>  <index>  (99) 
SC

>  <donors>  (99) 
1

>  <acceptors>  (99) 
7

>  <rotatable>  (99) 
9

>  <clogp>  (99) 
1.974

>  <rings>  (99) 
4

>  <tpsa>  (99) 
79.6

>  <iupac_name>  (99) 
(R)-N-(5-([1,2,4]triazolo[4,3-a]pyridin-3-yl)pentyl)-2-(1-oxoisoindolin-2-yl)propanamide

>  <Num_H_Acceptors_Lipinski>  (99) 
7

>  <Num_H_Donors_Lipinski>  (99) 
1

>  <Molecular_Weight>  (99) 
391.4662

>  <ALogP>  (99) 
2.29

>  <Num_RotatableBonds>  (99) 
8

>  <Molecular_PolarSurfaceArea>  (99) 
79.59

>  <Num_H_Acceptors>  (99) 
4

>  <Num_H_Donors>  (99) 
1

>  <ADMET_Solubility>  (99) 
-3.535

>  <ADMET_Solubility_Level>  (99) 
3

>  <ADMET_Unknown_AlogP98>  (99) 
0

>  <ADMET_BBB>  (99) 
-0.61

>  <ADMET_BBB_Level>  (99) 
3

>  <ADMET_EXT_CYP2D6>  (99) 
-6.86611927036684

>  <ADMET_EXT_CYP2D6#Prediction>  (99) 
false

>  <ADMET_EXT_CYP2D6_Applicability>  (99) 
OPS PC8 out of range. Value: 4.6535. Training min, max, SD, explained variance: -4.2516, 4.6021, 1.692, 0.0374.
Unknown FCFP_2 feature: -203115083: [*][c]1:[*]:[*]:[c](:[*]):n:1:[cH]:[*]
Unknown FCFP_2 feature: -1564473960: [*][c](:[*]):[c]1:n:[*]:[*]:n:1:[*]

>  <ADMET_EXT_CYP2D6_Applicability#MD>  (99) 
18.5692210023875

>  <ADMET_EXT_CYP2D6_Applicability#MDpvalue>  (99) 
1.55768346868227e-10

>  <ADMET_EXT_Hepatotoxic>  (99) 
-5.24358387109669

>  <ADMET_EXT_Hepatotoxic#Prediction>  (99) 
false

>  <ADMET_EXT_Hepatotoxic_Applicability>  (99) 
All properties and OPS components are within expected ranges.
Unknown FCFP_2 feature: -203115083: [*][c]1:[*]:[*]:[c](:[*]):n:1:[cH]:[*]

>  <ADMET_EXT_Hepatotoxic_Applicability#MD>  (99) 
15.8528713161963

>  <ADMET_EXT_Hepatotoxic_Applicability#MDpvalue>  (99) 
1.39787794084733e-13

>  <ADMET_Absorption_Level>  (99) 
0

>  <ADMET_EXT_PPB>  (99) 
-0.308000543611981

>  <ADMET_EXT_PPB#Prediction>  (99) 
true

>  <ADMET_EXT_PPB_Applicability>  (99) 
All properties and OPS components are within expected ranges.

>  <ADMET_EXT_PPB_Applicability#MD>  (99) 
15.2772305851056

>  <ADMET_EXT_PPB_Applicability#MDpvalue>  (99) 
1.38692296274635e-07

>  <ADMET_AlogP98>  (99) 
2.551

>  <ADMET_PSA_2D>  (99) 
78.634

$$$$
STOCK7S-42688
     RDKit          3D

 27 29  0  0  0  0  0  0  0  0999 V2000
   -3.7011   -0.3284    0.0234 C   0  0  0  0  0  0  0  0  0  0  0  0
   -2.5405   -1.1046   -0.0033 N   0  0  0  0  0  0  0  0  0  0  0  0
    1.3488   -0.7719   -0.0220 C   0  0  0  0  0  0  0  0  0  0  0  0
   -0.0399   -1.4526    0.2474 C   0  0  1  0  0  0  0  0  0  0  0  0
   -3.6533    0.9437    0.0457 N   0  0  0  0  0  0  0  0  0  0  0  0
   -4.9363   -1.0040    0.0076 N   0  0  0  0  0  0  0  0  0  0  0  0
    2.6596   -1.4472    0.0168 N   0  0  0  0  0  0  0  0  0  0  0  0
   -1.2089   -0.4696   -0.0903 C   0  0  0  0  0  0  0  0  0  0  0  0
   -6.0341   -0.3683    0.0158 C   0  0  0  0  0  0  0  0  0  0  0  0
   -4.8432    1.6988    0.0562 C   0  0  0  0  0  0  0  0  0  0  0  0
    6.7475   -4.7836   -0.0616 C   0  0  0  0  0  0  0  0  0  0  0  0
    1.3440    0.4330   -0.2993 O   0  0  0  0  0  0  0  0  0  0  0  0
   -6.0190    1.0782    0.0408 C   0  0  0  0  0  0  0  0  0  0  0  0
    3.8271   -0.6460   -0.3633 C   0  0  0  0  0  0  0  0  0  0  0  0
    2.8055   -2.8812    0.3323 C   0  0  0  0  0  0  0  0  0  0  0  0
    5.8210   -5.3936   -0.6108 O   0  0  0  0  0  0  0  0  0  0  0  0
    6.6486   -3.2883    0.2009 C   0  0  0  0  0  0  0  0  0  0  0  0
   -2.7383   -2.5278   -0.1967 C   0  0  0  0  0  0  0  0  0  0  0  0
   -0.2802   -2.7966   -0.4653 C   0  0  0  0  0  0  0  0  0  0  0  0
    5.1926   -1.2333    0.0853 C   0  0  0  0  0  0  0  0  0  0  0  0
    4.2049   -3.3297    0.7523 C   0  0  0  0  0  0  0  0  0  0  0  0
    7.9055   -5.4724    0.2959 O   0  0  0  0  0  0  0  0  0  0  0  0
    5.2500   -2.7385   -0.1810 C   0  0  0  0  0  0  0  0  0  0  0  0
   -1.5317   -3.3806    0.1564 C   0  0  0  0  0  0  0  0  0  0  0  0
   -4.7908    3.1964    0.0779 C   0  0  0  0  0  0  0  0  0  0  0  0
   -7.3350   -1.1167   -0.0020 C   0  0  0  0  0  0  0  0  0  0  0  0
    7.7761   -6.8541   -0.0598 C   0  0  0  0  0  0  0  0  0  0  0  0
  2  1  1  0
  4  3  1  6
  4  8  1  0
  5  1  2  0
  6  1  1  0
  7  3  1  0
  8  2  1  0
  9  6  2  0
 10  5  1  0
 11 17  1  0
 12  3  2  0
 13  9  1  0
 14  7  1  0
 15  7  1  0
 16 11  2  0
 17 23  1  0
 18  2  1  0
 19 24  1  0
 20 14  1  0
 21 15  1  0
 22 11  1  0
 23 21  1  0
 24 18  1  0
 25 10  1  0
 26  9  1  0
 27 22  1  0
 10 13  2  0
 19  4  1  0
 20 23  1  0
M  END
>  <Name>  (100) 
STOCK7S-42688

>  <id>  (100) 
STOCK7S-42688

>  <index>  (100) 
SC

>  <donors>  (100) 
0

>  <acceptors>  (100) 
7

>  <rotatable>  (100) 
6

>  <clogp>  (100) 
1.606

>  <rings>  (100) 
3

>  <tpsa>  (100) 
75.63

>  <iupac_name>  (100) 
methyl 2-(1-(1-(4,6-dimethylpyrimidin-2-yl)piperidine-3-carbonyl)piperidin-4-yl)acetate

>  <Num_H_Acceptors_Lipinski>  (100) 
7

>  <Num_H_Donors_Lipinski>  (100) 
0

>  <Molecular_Weight>  (100) 
374.4772

>  <ALogP>  (100) 
1.893

>  <Num_RotatableBonds>  (100) 
5

>  <Molecular_PolarSurfaceArea>  (100) 
75.63

>  <Num_H_Acceptors>  (100) 
6

>  <Num_H_Donors>  (100) 
0

>  <ADMET_Solubility>  (100) 
-3.075

>  <ADMET_Solubility_Level>  (100) 
3

>  <ADMET_Unknown_AlogP98>  (100) 
0

>  <ADMET_BBB>  (100) 
-0.72

>  <ADMET_BBB_Level>  (100) 
3

>  <ADMET_EXT_CYP2D6>  (100) 
-7.70592684167007

>  <ADMET_EXT_CYP2D6#Prediction>  (100) 
false

>  <ADMET_EXT_CYP2D6_Applicability>  (100) 
All properties and OPS components are within expected ranges.
Unknown FCFP_2 feature: -1410079687: [*]S[c]1:n:[*]:[*]:n:1

>  <ADMET_EXT_CYP2D6_Applicability#MD>  (100) 
18.4413274321173

>  <ADMET_EXT_CYP2D6_Applicability#MDpvalue>  (100) 
2.18962519867479e-10

>  <ADMET_EXT_Hepatotoxic>  (100) 
-7.2944452009188

>  <ADMET_EXT_Hepatotoxic#Prediction>  (100) 
false

>  <ADMET_EXT_Hepatotoxic_Applicability>  (100) 
All properties and OPS components are within expected ranges.

>  <ADMET_EXT_Hepatotoxic_Applicability#MD>  (100) 
14.7206516261848

>  <ADMET_EXT_Hepatotoxic_Applicability#MDpvalue>  (100) 
1.58591740398495e-10

>  <ADMET_Absorption_Level>  (100) 
0

>  <ADMET_EXT_PPB>  (100) 
-0.485023544052971

>  <ADMET_EXT_PPB#Prediction>  (100) 
true

>  <ADMET_EXT_PPB_Applicability>  (100) 
All properties and OPS components are within expected ranges.

>  <ADMET_EXT_PPB_Applicability#MD>  (100) 
14.8481146079144

>  <ADMET_EXT_PPB_Applicability#MDpvalue>  (100) 
1.5367208193763e-06

>  <ADMET_AlogP98>  (100) 
1.893

>  <ADMET_PSA_2D>  (100) 
72.758

$$$$
STOCK7S-43989
     RDKit          3D

 29 32  0  0  0  0  0  0  0  0999 V2000
    1.6020   -3.9062   -0.1404 N   0  0  0  0  0  0  0  0  0  0  0  0
    1.4967   -5.3410   -0.1236 C   0  0  0  0  0  0  0  0  0  0  0  0
   10.7875   -1.6610    0.0226 N   0  0  0  0  0  0  0  0  0  0  0  0
   12.6723   -2.6607    0.0279 N   0  0  0  0  0  0  0  0  0  0  0  0
   11.6803   -3.6189    0.0791 N   0  0  0  0  0  0  0  0  0  0  0  0
   12.1104   -1.5202   -0.0032 C   0  0  0  0  0  0  0  0  0  0  0  0
   10.5380   -3.0414    0.0741 C   0  0  0  0  0  0  0  0  0  0  0  0
    0.2134   -3.3410   -0.0896 C   0  0  0  0  0  0  0  0  0  0  0  0
    0.1062   -5.6807   -0.0308 C   0  0  0  0  0  0  0  0  0  0  0  0
    2.9181   -3.0591   -0.2844 C   0  0  2  0  0  0  0  0  0  0  0  0
   -0.6187   -4.6012   -0.0107 C   0  0  0  0  0  0  0  0  0  0  0  0
    4.2298   -3.8649    0.0411 C   0  0  0  0  0  0  0  0  0  0  0  0
    9.9280   -0.5597    0.0226 C   0  0  0  0  0  0  0  0  0  0  0  0
    2.4098   -6.1596   -0.1924 O   0  0  0  0  0  0  0  0  0  0  0  0
   12.7501   -0.2264   -0.0539 C   0  0  0  0  0  0  0  0  0  0  0  0
    4.1946   -4.9357    0.6538 O   0  0  0  0  0  0  0  0  0  0  0  0
   10.4687    0.6651   -0.0179 C   0  0  0  0  0  0  0  0  0  0  0  0
   11.9514    0.8424   -0.0615 C   0  0  0  0  0  0  0  0  0  0  0  0
    5.4292   -3.3759   -0.3219 N   0  0  0  0  0  0  0  0  0  0  0  0
    2.9541   -1.6898    0.6259 C   0  0  0  0  0  0  0  0  0  0  0  0
    9.2026   -3.8411    0.1291 C   0  0  0  0  0  0  0  0  0  0  0  0
   -0.4808   -7.0120    0.0313 C   0  0  0  0  0  0  0  0  0  0  0  0
   -2.0705   -4.6525    0.0762 C   0  0  0  0  0  0  0  0  0  0  0  0
    6.6677   -4.0642   -0.0177 C   0  0  0  0  0  0  0  0  0  0  0  0
    1.8418   -0.6433    0.3398 C   0  0  0  0  0  0  0  0  0  0  0  0
    4.2582   -0.8918    0.4231 C   0  0  0  0  0  0  0  0  0  0  0  0
    7.8739   -3.0729   -0.1317 C   0  0  0  0  0  0  0  0  0  0  0  0
   -1.8160   -7.0942    0.1124 C   0  0  0  0  0  0  0  0  0  0  0  0
   -2.6493   -5.8569    0.1356 C   0  0  0  0  0  0  0  0  0  0  0  0
  2  1  1  0
  3  7  1  0
  4  5  1  0
  5  7  2  0
  6  3  1  0
  7 21  1  0
  8  1  1  0
  9  2  1  0
 10  1  1  0
 11  8  1  0
 12 10  1  0
 13  3  1  0
 14  2  2  0
 15  6  1  0
 16 12  2  0
 17 13  2  0
 18 17  1  0
 19 12  1  0
 10 20  1  1
 21 27  1  0
 22  9  2  0
 23 11  2  0
 24 19  1  0
 25 20  1  0
 26 20  1  0
 27 24  1  0
 28 22  1  0
 29 23  1  0
  9 11  1  0
 28 29  2  0
  4  6  2  0
 15 18  2  0
M  END
>  <Name>  (101) 
STOCK7S-43989

>  <id>  (101) 
STOCK7S-43989

>  <index>  (101) 
SC

>  <donors>  (101) 
1

>  <acceptors>  (101) 
7

>  <rotatable>  (101) 
8

>  <clogp>  (101) 
1.844

>  <rings>  (101) 
4

>  <tpsa>  (101) 
79.6

>  <iupac_name>  (101) 
(S)-N-(3-([1,2,4]triazolo[4,3-a]pyridin-3-yl)propyl)-3-methyl-2-(1-oxoisoindolin-2-yl)butanamide

>  <Num_H_Acceptors_Lipinski>  (101) 
7

>  <Num_H_Donors_Lipinski>  (101) 
1

>  <Molecular_Weight>  (101) 
391.4662

>  <ALogP>  (101) 
2.221

>  <Num_RotatableBonds>  (101) 
7

>  <Molecular_PolarSurfaceArea>  (101) 
79.59

>  <Num_H_Acceptors>  (101) 
4

>  <Num_H_Donors>  (101) 
1

>  <ADMET_Solubility>  (101) 
-3.76

>  <ADMET_Solubility_Level>  (101) 
3

>  <ADMET_Unknown_AlogP98>  (101) 
0

>  <ADMET_BBB>  (101) 
-0.631

>  <ADMET_BBB_Level>  (101) 
3

>  <ADMET_EXT_CYP2D6>  (101) 
-6.28234168053309

>  <ADMET_EXT_CYP2D6#Prediction>  (101) 
false

>  <ADMET_EXT_CYP2D6_Applicability>  (101) 
OPS PC8 out of range. Value: 4.7106. Training min, max, SD, explained variance: -4.2516, 4.6021, 1.692, 0.0374.
Unknown FCFP_2 feature: -203115083: [*][c]1:[*]:[*]:[c](:[*]):n:1:[cH]:[*]
Unknown FCFP_2 feature: -1564473960: [*][c](:[*]):[c]1:n:[*]:[*]:n:1:[*]

>  <ADMET_EXT_CYP2D6_Applicability#MD>  (101) 
19.6187943712086

>  <ADMET_EXT_CYP2D6_Applicability#MDpvalue>  (101) 
9.65318350598078e-12

>  <ADMET_EXT_Hepatotoxic>  (101) 
-4.48053217503769

>  <ADMET_EXT_Hepatotoxic#Prediction>  (101) 
false

>  <ADMET_EXT_Hepatotoxic_Applicability>  (101) 
All properties and OPS components are within expected ranges.
Unknown FCFP_2 feature: -203115083: [*][c]1:[*]:[*]:[c](:[*]):n:1:[cH]:[*]

>  <ADMET_EXT_Hepatotoxic_Applicability#MD>  (101) 
15.8800133386411

>  <ADMET_EXT_Hepatotoxic_Applicability#MDpvalue>  (101) 
1.17255474776244e-13

>  <ADMET_Absorption_Level>  (101) 
0

>  <ADMET_EXT_PPB>  (101) 
0.14719560783868

>  <ADMET_EXT_PPB#Prediction>  (101) 
true

>  <ADMET_EXT_PPB_Applicability>  (101) 
All properties and OPS components are within expected ranges.

>  <ADMET_EXT_PPB_Applicability#MD>  (101) 
15.7569974587101

>  <ADMET_EXT_PPB_Applicability#MDpvalue>  (101) 
7.70081333756434e-09

>  <ADMET_AlogP98>  (101) 
2.482

>  <ADMET_PSA_2D>  (101) 
78.634

$$$$
STOCK7S-46553
     RDKit          3D

 27 29  0  0  0  0  0  0  0  0999 V2000
    6.5022   -7.0395   -0.0812 C   0  0  0  0  0  0  0  0  0  0  0  0
    7.8680   -6.2797   -0.2658 C   0  0  1  0  0  0  0  0  0  0  0  0
    9.3433   -4.3528    0.2479 N   0  0  0  0  0  0  0  0  0  0  0  0
    5.1623   -6.4431    0.0548 N   0  0  0  0  0  0  0  0  0  0  0  0
    8.3196   -2.2897    0.1886 N   0  0  0  0  0  0  0  0  0  0  0  0
    9.3917   -2.9553    0.1641 C   0  0  0  0  0  0  0  0  0  0  0  0
    8.0688   -4.9550    0.5076 C   0  0  0  0  0  0  0  0  0  0  0  0
    8.2956   -0.9418    0.1129 N   0  0  0  0  0  0  0  0  0  0  0  0
   -0.0995   -5.5172   -0.1361 C   0  0  0  0  0  0  0  0  0  0  0  0
    9.3711   -0.2590    0.0125 C   0  0  0  0  0  0  0  0  0  0  0  0
    6.5444   -8.2712   -0.1863 O   0  0  0  0  0  0  0  0  0  0  0  0
    4.0324   -7.3670    0.0741 C   0  0  0  0  0  0  0  0  0  0  0  0
    4.9211   -5.0063    0.2416 C   0  0  0  0  0  0  0  0  0  0  0  0
   10.6759   -2.2706    0.0458 C   0  0  0  0  0  0  0  0  0  0  0  0
   -1.1911   -5.0461   -0.4748 O   0  0  0  0  0  0  0  0  0  0  0  0
    1.1594   -4.7461   -0.4548 C   0  0  0  0  0  0  0  0  0  0  0  0
   10.6605   -0.9436   -0.0258 C   0  0  0  0  0  0  0  0  0  0  0  0
   10.5451   -5.1535    0.2360 C   0  0  0  0  0  0  0  0  0  0  0  0
    9.0570   -7.2179   -0.0198 C   0  0  0  0  0  0  0  0  0  0  0  0
    2.7374   -6.7576   -0.5236 C   0  0  0  0  0  0  0  0  0  0  0  0
    3.6011   -4.4973   -0.3237 C   0  0  0  0  0  0  0  0  0  0  0  0
   -0.0567   -6.7390    0.5317 O   0  0  0  0  0  0  0  0  0  0  0  0
    2.4541   -5.3863    0.1089 C   0  0  0  0  0  0  0  0  0  0  0  0
    9.2878    1.1413   -0.0554 O   0  0  0  0  0  0  0  0  0  0  0  0
   10.3254   -6.4913   -0.5125 C   0  0  0  0  0  0  0  0  0  0  0  0
   -1.3854   -7.2467    0.6848 C   0  0  0  0  0  0  0  0  0  0  0  0
   10.5919    1.7308   -0.1524 C   0  0  0  0  0  0  0  0  0  0  0  0
  2  1  1  1
  3  7  1  0
  4  1  1  0
  5  6  2  0
  6  3  1  0
  7  2  1  0
  8  5  1  0
  9 16  1  0
 10 17  1  0
 11  1  2  0
 12  4  1  0
 13  4  1  0
 14  6  1  0
 15  9  2  0
 16 23  1  0
 17 14  2  0
 18 25  1  0
 19  2  1  0
 20 12  1  0
 21 13  1  0
 22  9  1  0
 23 21  1  0
 24 10  1  0
 25 19  1  0
 26 22  1  0
 27 24  1  0
 23 20  1  0
 18  3  1  0
 10  8  2  0
M  END
>  <Name>  (102) 
STOCK7S-46553

>  <id>  (102) 
STOCK7S-46553

>  <index>  (102) 
SC

>  <donors>  (102) 
0

>  <acceptors>  (102) 
8

>  <rotatable>  (102) 
7

>  <clogp>  (102) 
1.054

>  <rings>  (102) 
3

>  <tpsa>  (102) 
84.86

>  <iupac_name>  (102) 
methyl 2-(1-(1-(6-methoxypyridazin-3-yl)piperidine-3-carbonyl)piperidin-4-yl)acetate

>  <Num_H_Acceptors_Lipinski>  (102) 
8

>  <Num_H_Donors_Lipinski>  (102) 
0

>  <Molecular_Weight>  (102) 
376.45002

>  <ALogP>  (102) 
2.03

>  <Num_RotatableBonds>  (102) 
6

>  <Molecular_PolarSurfaceArea>  (102) 
84.86

>  <Num_H_Acceptors>  (102) 
7

>  <Num_H_Donors>  (102) 
0

>  <ADMET_Solubility>  (102) 
-3.024

>  <ADMET_Solubility_Level>  (102) 
3

>  <ADMET_Unknown_AlogP98>  (102) 
0

>  <ADMET_BBB>  (102) 
-0.819

>  <ADMET_BBB_Level>  (102) 
3

>  <ADMET_EXT_CYP2D6>  (102) 
-8.08122521405232

>  <ADMET_EXT_CYP2D6#Prediction>  (102) 
false

>  <ADMET_EXT_CYP2D6_Applicability>  (102) 
All properties and OPS components are within expected ranges.

>  <ADMET_EXT_CYP2D6_Applicability#MD>  (102) 
22.0741738274023

>  <ADMET_EXT_CYP2D6_Applicability#MDpvalue>  (102) 
1.66309183301127e-14

>  <ADMET_EXT_Hepatotoxic>  (102) 
-4.41705533479479

>  <ADMET_EXT_Hepatotoxic#Prediction>  (102) 
false

>  <ADMET_EXT_Hepatotoxic_Applicability>  (102) 
All properties and OPS components are within expected ranges.

>  <ADMET_EXT_Hepatotoxic_Applicability#MD>  (102) 
18.7838216538876

>  <ADMET_EXT_Hepatotoxic_Applicability#MDpvalue>  (102) 
1.83078131281776e-22

>  <ADMET_Absorption_Level>  (102) 
0

>  <ADMET_EXT_PPB>  (102) 
-0.658906804469114

>  <ADMET_EXT_PPB#Prediction>  (102) 
true

>  <ADMET_EXT_PPB_Applicability>  (102) 
All properties and OPS components are within expected ranges.

>  <ADMET_EXT_PPB_Applicability#MD>  (102) 
15.4935799801907

>  <ADMET_EXT_PPB_Applicability#MDpvalue>  (102) 
3.86419471758134e-08

>  <ADMET_AlogP98>  (102) 
2.03

>  <ADMET_PSA_2D>  (102) 
81.688

$$$$
STOCK7S-48308
     RDKit          3D

 29 32  0  0  0  0  0  0  0  0999 V2000
    3.2595   -3.8890    0.0293 N   0  0  0  0  0  0  0  0  0  0  0  0
    4.0182   -2.7312    0.2754 C   0  0  0  0  0  0  0  0  0  0  0  0
    4.1469   -4.8785   -0.3575 C   0  0  0  0  0  0  0  0  0  0  0  0
    5.3817   -2.9786    0.0350 N   0  0  0  0  0  0  0  0  0  0  0  0
    5.5553   -4.3367   -0.4638 C   0  0  1  0  0  0  0  0  0  0  0  0
    6.6035   -5.1946    0.2913 C   0  0  0  0  0  0  0  0  0  0  0  0
   11.8319   -6.7146    0.3705 N   0  0  0  0  0  0  0  0  0  0  0  0
    1.7923   -4.1526    0.1723 C   0  0  0  0  0  0  0  0  0  0  0  0
    7.9692   -4.5416    0.2086 C   0  0  0  0  0  0  0  0  0  0  0  0
   -0.0109   -0.7349   -0.0374 C   0  0  0  0  0  0  0  0  0  0  0  0
    3.5934   -1.6478    0.6811 O   0  0  0  0  0  0  0  0  0  0  0  0
   -1.3159   -1.1336    0.0524 C   0  0  0  0  0  0  0  0  0  0  0  0
    0.0406    0.5961   -0.1437 O   0  0  0  0  0  0  0  0  0  0  0  0
    3.8233   -6.0426   -0.6179 O   0  0  0  0  0  0  0  0  0  0  0  0
   -2.1193   -0.0689    0.0025 O   0  0  0  0  0  0  0  0  0  0  0  0
    9.0708   -5.2369    0.5050 N   0  0  0  0  0  0  0  0  0  0  0  0
   -1.3087    1.1275   -0.1212 C   0  0  0  0  0  0  0  0  0  0  0  0
    1.0066   -1.5858   -0.0163 C   0  0  0  0  0  0  0  0  0  0  0  0
    0.7115   -3.0324    0.1222 C   0  0  0  0  0  0  0  0  0  0  0  0
   11.4978   -5.4131   -0.2170 C   0  0  1  0  0  0  0  0  0  0  0  0
    8.0652   -3.3544   -0.1221 O   0  0  0  0  0  0  0  0  0  0  0  0
   10.3653   -4.5882    0.4852 C   0  0  0  0  0  0  0  0  0  0  0  0
   -1.6633   -2.4094    0.1697 C   0  0  0  0  0  0  0  0  0  0  0  0
   -0.5745   -3.4113    0.2076 C   0  0  0  0  0  0  0  0  0  0  0  0
   13.0099   -7.0994   -0.4360 C   0  0  0  0  0  0  0  0  0  0  0  0
   10.7590   -7.7216    0.2462 C   0  0  0  0  0  0  0  0  0  0  0  0
   13.8338   -5.7780   -0.5494 C   0  0  0  0  0  0  0  0  0  0  0  0
   12.8400   -4.7029   -0.0491 C   0  0  0  0  0  0  0  0  0  0  0  0
   11.2403   -9.0798    0.7933 C   0  0  0  0  0  0  0  0  0  0  0  0
  2  1  1  0
  3  1  1  0
  4  2  1  0
  5  3  1  0
  5  6  1  1
  7 20  1  0
  8  1  1  0
  9  6  1  0
 10 18  2  0
 11  2  2  0
 12 23  2  0
 13 10  1  0
 14  3  2  0
 15 12  1  0
 16  9  1  0
 17 13  1  0
 18 19  1  0
 19  8  1  0
 20 22  1  1
 21  9  2  0
 22 16  1  0
 23 24  1  0
 24 19  2  0
 25  7  1  0
 26  7  1  0
 27 28  1  0
 28 20  1  0
 29 26  1  0
  4  5  1  0
 10 12  1  0
 15 17  1  0
 25 27  1  0
M  END
>  <Name>  (103) 
STOCK7S-48308

>  <id>  (103) 
STOCK7S-48308

>  <index>  (103) 
SC

>  <donors>  (103) 
2

>  <acceptors>  (103) 
9

>  <rotatable>  (103) 
8

>  <clogp>  (103) 
1.794

>  <rings>  (103) 
4

>  <tpsa>  (103) 
100.21

>  <iupac_name>  (103) 
2-((S)-1-(benzo[d][1,3]dioxol-5-ylmethyl)-2,5-dioxoimidazolidin-4-yl)-N-((1-ethylpyrrolidin-2-yl)methyl)acetamide

>  <Num_H_Acceptors_Lipinski>  (103) 
9

>  <Num_H_Donors_Lipinski>  (103) 
2

>  <Molecular_Weight>  (103) 
402.44424

>  <ALogP>  (103) 
0.817

>  <Num_RotatableBonds>  (103) 
7

>  <Molecular_PolarSurfaceArea>  (103) 
100.21

>  <Num_H_Acceptors>  (103) 
6

>  <Num_H_Donors>  (103) 
2

>  <ADMET_Solubility>  (103) 
-3.08

>  <ADMET_Solubility_Level>  (103) 
3

>  <ADMET_Unknown_AlogP98>  (103) 
0

>  <ADMET_BBB>  (103) 
-1.355

>  <ADMET_BBB_Level>  (103) 
3

>  <ADMET_EXT_CYP2D6>  (103) 
-5.57834936085499

>  <ADMET_EXT_CYP2D6#Prediction>  (103) 
false

>  <ADMET_EXT_CYP2D6_Applicability>  (103) 
All properties and OPS components are within expected ranges.

>  <ADMET_EXT_CYP2D6_Applicability#MD>  (103) 
14.1168751956324

>  <ADMET_EXT_CYP2D6_Applicability#MDpvalue>  (103) 
1.96661159529928e-05

>  <ADMET_EXT_Hepatotoxic>  (103) 
-4.83414986857514

>  <ADMET_EXT_Hepatotoxic#Prediction>  (103) 
false

>  <ADMET_EXT_Hepatotoxic_Applicability>  (103) 
All properties and OPS components are within expected ranges.

>  <ADMET_EXT_Hepatotoxic_Applicability#MD>  (103) 
11.424375740025

>  <ADMET_EXT_Hepatotoxic_Applicability#MDpvalue>  (103) 
0.00147461218641366

>  <ADMET_Absorption_Level>  (103) 
0

>  <ADMET_EXT_PPB>  (103) 
-9.1920492480764

>  <ADMET_EXT_PPB#Prediction>  (103) 
false

>  <ADMET_EXT_PPB_Applicability>  (103) 
All properties and OPS components are within expected ranges.

>  <ADMET_EXT_PPB_Applicability#MD>  (103) 
14.8412683580236

>  <ADMET_EXT_PPB_Applicability#MDpvalue>  (103) 
1.59455194264422e-06

>  <ADMET_AlogP98>  (103) 
1.342

>  <ADMET_PSA_2D>  (103) 
102.087

$$$$
STOCK7S-49166
     RDKit          3D

 26 28  0  0  0  0  0  0  0  0999 V2000
   -4.2094   -5.2440    0.1496 N   0  0  0  0  0  0  0  0  0  0  0  0
   -3.4798   -4.0516    0.2665 C   0  0  0  0  0  0  0  0  0  0  0  0
   -3.3193   -6.2332   -0.2292 C   0  0  0  0  0  0  0  0  0  0  0  0
   -2.1292   -4.2686   -0.0746 N   0  0  0  0  0  0  0  0  0  0  0  0
   -1.9508   -5.6503   -0.5043 C   0  0  1  0  0  0  0  0  0  0  0  0
    8.7675   -6.9940    0.0294 N   0  0  0  0  0  0  0  0  0  0  0  0
    6.6583   -6.5983    0.0041 N   0  0  0  0  0  0  0  0  0  0  0  0
   -5.6521   -5.5287    0.4137 C   0  0  0  0  0  0  0  0  0  0  0  0
    7.9251   -6.0420   -0.0826 C   0  0  0  0  0  0  0  0  0  0  0  0
   -3.9193   -2.9609    0.6355 O   0  0  0  0  0  0  0  0  0  0  0  0
    1.7727   -6.4785    0.1692 C   0  0  0  0  0  0  0  0  0  0  0  0
   -3.6199   -7.4195   -0.3912 O   0  0  0  0  0  0  0  0  0  0  0  0
    8.0686   -8.2184    0.1928 C   0  0  0  0  0  0  0  0  0  0  0  0
    6.7621   -7.9590    0.1757 C   0  0  0  0  0  0  0  0  0  0  0  0
   -0.7722   -6.4096    0.1640 C   0  0  0  0  0  0  0  0  0  0  0  0
    1.6545   -7.5915    0.6938 O   0  0  0  0  0  0  0  0  0  0  0  0
    2.9858   -5.9913   -0.1103 N   0  0  0  0  0  0  0  0  0  0  0  0
    0.5450   -5.6771   -0.2128 C   0  0  0  0  0  0  0  0  0  0  0  0
   -6.7639   -4.4562    0.2148 C   0  0  0  0  0  0  0  0  0  0  0  0
    4.1866   -6.7434    0.1769 C   0  0  0  0  0  0  0  0  0  0  0  0
    5.4222   -5.8564   -0.1288 C   0  0  0  0  0  0  0  0  0  0  0  0
   -8.0292   -4.8418    0.3971 C   0  0  0  0  0  0  0  0  0  0  0  0
   -6.5078   -3.0577   -0.1687 C   0  0  0  0  0  0  0  0  0  0  0  0
   -9.1387   -3.8949    0.2277 C   0  0  0  0  0  0  0  0  0  0  0  0
   -7.5132   -2.1948   -0.3159 C   0  0  0  0  0  0  0  0  0  0  0  0
   -8.8919   -2.6317   -0.1086 C   0  0  0  0  0  0  0  0  0  0  0  0
  2  1  1  0
  3  1  1  0
  4  2  1  0
  5  3  1  0
  6  9  2  0
  7 21  1  0
  8  1  1  0
  9  7  1  0
 10  2  2  0
 11 18  1  0
 12  3  2  0
 13 14  2  0
 14  7  1  0
  5 15  1  1
 16 11  2  0
 17 11  1  0
 18 15  1  0
 19  8  1  0
 20 17  1  0
 21 20  1  0
 22 19  2  0
 23 19  1  0
 24 22  1  0
 25 23  2  0
 26 25  1  0
  4  5  1  0
 26 24  2  0
 13  6  1  0
M  END
>  <Name>  (104) 
STOCK7S-49166

>  <id>  (104) 
STOCK7S-49166

>  <index>  (104) 
SC

>  <donors>  (104) 
2

>  <acceptors>  (104) 
8

>  <rotatable>  (104) 
9

>  <clogp>  (104) 
-0.383

>  <rings>  (104) 
3

>  <tpsa>  (104) 
96.33

>  <iupac_name>  (104) 
(S)-N-(2-(1H-imidazol-1-yl)ethyl)-3-(1-benzyl-2,5-dioxoimidazolidin-4-yl)propanamide

>  <Num_H_Acceptors_Lipinski>  (104) 
8

>  <Num_H_Donors_Lipinski>  (104) 
2

>  <Molecular_Weight>  (104) 
355.39104

>  <ALogP>  (104) 
0.135

>  <Num_RotatableBonds>  (104) 
8

>  <Molecular_PolarSurfaceArea>  (104) 
96.33

>  <Num_H_Acceptors>  (104) 
4

>  <Num_H_Donors>  (104) 
2

>  <ADMET_Solubility>  (104) 
-1.781

>  <ADMET_Solubility_Level>  (104) 
4

>  <ADMET_Unknown_AlogP98>  (104) 
0

>  <ADMET_BBB>  (104) 
-1.493

>  <ADMET_BBB_Level>  (104) 
3

>  <ADMET_EXT_CYP2D6>  (104) 
-5.06327494668457

>  <ADMET_EXT_CYP2D6#Prediction>  (104) 
false

>  <ADMET_EXT_CYP2D6_Applicability>  (104) 
OPS PC8 out of range. Value: 5.075. Training min, max, SD, explained variance: -4.2516, 4.6021, 1.692, 0.0374.

>  <ADMET_EXT_CYP2D6_Applicability#MD>  (104) 
10.5028135701862

>  <ADMET_EXT_CYP2D6_Applicability#MDpvalue>  (104) 
0.0532681237146476

>  <ADMET_EXT_Hepatotoxic>  (104) 
-5.67729533335654

>  <ADMET_EXT_Hepatotoxic#Prediction>  (104) 
false

>  <ADMET_EXT_Hepatotoxic_Applicability>  (104) 
All properties and OPS components are within expected ranges.

>  <ADMET_EXT_Hepatotoxic_Applicability#MD>  (104) 
11.0751922661029

>  <ADMET_EXT_Hepatotoxic_Applicability#MDpvalue>  (104) 
0.00486613481407564

>  <ADMET_Absorption_Level>  (104) 
0

>  <ADMET_EXT_PPB>  (104) 
-11.3340804049307

>  <ADMET_EXT_PPB#Prediction>  (104) 
false

>  <ADMET_EXT_PPB_Applicability>  (104) 
All properties and OPS components are within expected ranges.

>  <ADMET_EXT_PPB_Applicability#MD>  (104) 
14.2178241730945

>  <ADMET_EXT_PPB_Applicability#MDpvalue>  (104) 
3.78953412919361e-05

>  <ADMET_AlogP98>  (104) 
0.66

>  <ADMET_PSA_2D>  (104) 
97.484

$$$$
STOCK7S-50447
     RDKit          3D

 28 31  0  0  0  0  0  0  0  0999 V2000
    9.7100   -1.9703   -0.0029 C   0  0  0  0  0  0  0  0  0  0  0  0
    9.6491   -3.3058   -0.0125 C   0  0  0  0  0  0  0  0  0  0  0  0
   12.1812   -3.3733   -0.0059 C   0  0  0  0  0  0  0  0  0  0  0  0
    8.4791   -1.1505    0.0019 C   0  0  0  0  0  0  0  0  0  0  0  0
   10.9635   -1.3226    0.0049 N   0  0  0  0  0  0  0  0  0  0  0  0
   10.9003   -4.0757   -0.0147 C   0  0  0  0  0  0  0  0  0  0  0  0
   12.1785   -2.0385    0.0033 C   0  0  0  0  0  0  0  0  0  0  0  0
    7.2548   -1.7229   -0.0081 N   0  0  0  0  0  0  0  0  0  0  0  0
    3.5606   -1.0698   -0.0200 C   0  0  0  0  0  0  0  0  0  0  0  0
    4.7220   -1.7308   -0.0344 C   0  0  0  0  0  0  0  0  0  0  0  0
   13.3976   -4.1054   -0.0072 O   0  0  0  0  0  0  0  0  0  0  0  0
    3.5459    0.3882    0.0281 C   0  0  0  0  0  0  0  0  0  0  0  0
    6.0010   -0.9912    0.0022 C   0  0  0  0  0  0  0  0  0  0  0  0
    2.3788   -1.7470   -0.0137 O   0  0  0  0  0  0  0  0  0  0  0  0
    8.6179    0.0810    0.0159 O   0  0  0  0  0  0  0  0  0  0  0  0
   10.8717   -5.3131   -0.0226 O   0  0  0  0  0  0  0  0  0  0  0  0
    2.3598    1.0547   -0.0044 O   0  0  0  0  0  0  0  0  0  0  0  0
    4.6905    1.0631    0.0686 C   0  0  0  0  0  0  0  0  0  0  0  0
    5.9654    0.3442    0.0601 C   0  0  0  0  0  0  0  0  0  0  0  0
   14.5482   -3.2314    0.0015 C   0  0  0  0  0  0  0  0  0  0  0  0
   15.8290   -4.0373    0.0009 C   0  0  0  0  0  0  0  0  0  0  0  0
    1.1793   -1.0649    0.2748 C   0  0  0  0  0  0  0  0  0  0  0  0
    1.1771    0.3655   -0.3188 C   0  0  0  0  0  0  0  0  0  0  0  0
   15.7857   -5.3693   -0.0020 C   0  0  0  0  0  0  0  0  0  0  0  0
   17.1282   -3.3500    0.0035 C   0  0  0  0  0  0  0  0  0  0  0  0
   18.2594   -4.0553    0.0029 C   0  0  0  0  0  0  0  0  0  0  0  0
   17.0336   -6.1453   -0.0026 C   0  0  0  0  0  0  0  0  0  0  0  0
   18.2101   -5.5197   -0.0003 C   0  0  0  0  0  0  0  0  0  0  0  0
  2  1  2  0
  3  7  2  0
  4  1  1  0
  5  1  1  0
  6  2  1  0
  7  5  1  0
  8  4  1  0
  9 10  2  0
 10 13  1  0
 11  3  1  0
 12 18  2  0
 13  8  1  0
 14  9  1  0
 15  4  2  0
 16  6  2  0
 17 12  1  0
 18 19  1  0
 19 13  2  0
 20 11  1  0
 21 20  1  0
 22 14  1  0
 23 17  1  0
 24 21  2  0
 25 21  1  0
 26 25  2  0
 27 24  1  0
 28 26  1  0
  6  3  1  0
 12  9  1  0
 23 22  1  0
 27 28  2  0
M  END
>  <Name>  (105) 
STOCK7S-50447

>  <id>  (105) 
STOCK7S-50447

>  <index>  (105) 
SC

>  <donors>  (105) 
2

>  <acceptors>  (105) 
7

>  <rotatable>  (105) 
6

>  <clogp>  (105) 
1.357

>  <rings>  (105) 
4

>  <tpsa>  (105) 
89.6500000000001

>  <iupac_name>  (105) 
5-(benzyloxy)-N-(2,3-dihydrobenzo[b][1,4]dioxin-6-yl)-4-oxo-1,4-dihydropyridine-2-carboxamide

>  <Num_H_Acceptors_Lipinski>  (105) 
7

>  <Num_H_Donors_Lipinski>  (105) 
2

>  <Molecular_Weight>  (105) 
378.37802

>  <ALogP>  (105) 
1.421

>  <Num_RotatableBonds>  (105) 
5

>  <Molecular_PolarSurfaceArea>  (105) 
85.89

>  <Num_H_Acceptors>  (105) 
6

>  <Num_H_Donors>  (105) 
2

>  <ADMET_Solubility>  (105) 
-3.074

>  <ADMET_Solubility_Level>  (105) 
3

>  <ADMET_Unknown_AlogP98>  (105) 
0

>  <ADMET_BBB>  (105) 
-1.092

>  <ADMET_BBB_Level>  (105) 
3

>  <ADMET_EXT_CYP2D6>  (105) 
-6.49901167472277

>  <ADMET_EXT_CYP2D6#Prediction>  (105) 
false

>  <ADMET_EXT_CYP2D6_Applicability>  (105) 
All properties and OPS components are within expected ranges.
Unknown FCFP_2 feature: 436975416: [*]CC(=C([*])[*])N[*]

>  <ADMET_EXT_CYP2D6_Applicability#MD>  (105) 
14.7875747105882

>  <ADMET_EXT_CYP2D6_Applicability#MDpvalue>  (105) 
3.54014020108979e-06

>  <ADMET_EXT_Hepatotoxic>  (105) 
-7.03584094734131

>  <ADMET_EXT_Hepatotoxic#Prediction>  (105) 
false

>  <ADMET_EXT_Hepatotoxic_Applicability>  (105) 
All properties and OPS components are within expected ranges.

>  <ADMET_EXT_Hepatotoxic_Applicability#MD>  (105) 
11.4989842065242

>  <ADMET_EXT_Hepatotoxic_Applicability#MDpvalue>  (105) 
0.00112588799931202

>  <ADMET_Absorption_Level>  (105) 
0

>  <ADMET_EXT_PPB>  (105) 
-3.0487509217137

>  <ADMET_EXT_PPB#Prediction>  (105) 
false

>  <ADMET_EXT_PPB_Applicability>  (105) 
All properties and OPS components are within expected ranges.

>  <ADMET_EXT_PPB_Applicability#MD>  (105) 
13.1928710722427

>  <ADMET_EXT_PPB_Applicability#MDpvalue>  (105) 
0.00283959543438121

>  <ADMET_AlogP98>  (105) 
1.421

>  <ADMET_PSA_2D>  (105) 
87.012

$$$$
STOCK7S-50619
     RDKit          3D

 31 34  0  0  0  0  0  0  0  0999 V2000
    5.8031   -6.6286   -0.0712 C   0  0  0  0  0  0  0  0  0  0  0  0
    5.8043   -7.9780    0.0835 C   0  0  0  0  0  0  0  0  0  0  0  0
    7.0468   -8.6825    0.2047 C   0  0  0  0  0  0  0  0  0  0  0  0
    7.0490   -5.9720   -0.1307 O   0  0  0  0  0  0  0  0  0  0  0  0
    4.4380   -5.8053   -0.2066 C   0  0  2  0  0  0  0  0  0  0  0  0
    8.2733   -6.6568   -0.0188 C   0  0  0  0  0  0  0  0  0  0  0  0
    8.2696   -7.9739    0.1571 C   0  0  0  0  0  0  0  0  0  0  0  0
    4.5113   -4.2309   -0.0790 C   0  0  0  0  0  0  0  0  0  0  0  0
    5.7764   -3.4767   -0.2294 C   0  0  0  0  0  0  0  0  0  0  0  0
   10.8693   -6.7029    0.1992 N   0  0  0  0  0  0  0  0  0  0  0  0
    5.7738   -2.1425   -0.1099 C   0  0  0  0  0  0  0  0  0  0  0  0
    1.7912   -6.1397   -0.0947 C   0  0  0  0  0  0  0  0  0  0  0  0
    3.1625   -6.4861    0.4692 C   0  0  0  0  0  0  0  0  0  0  0  0
    6.9489   -1.4059   -0.2380 N   0  0  0  0  0  0  0  0  0  0  0  0
    9.6144   -5.8781   -0.0768 C   0  0  0  0  0  0  0  0  0  0  0  0
    7.0490   -9.9117    0.3451 O   0  0  0  0  0  0  0  0  0  0  0  0
    4.5595   -0.0422    0.2699 N   0  0  0  0  0  0  0  0  0  0  0  0
    4.5397   -1.4273    0.1600 C   0  0  0  0  0  0  0  0  0  0  0  0
    3.4002   -3.5359    0.1795 C   0  0  0  0  0  0  0  0  0  0  0  0
    1.6779   -5.4178   -1.0923 O   0  0  0  0  0  0  0  0  0  0  0  0
    4.6538   -8.7552    0.1259 O   0  0  0  0  0  0  0  0  0  0  0  0
    3.4035   -2.0918    0.3001 C   0  0  0  0  0  0  0  0  0  0  0  0
   13.5760   -7.5886   -0.2729 O   0  0  0  0  0  0  0  0  0  0  0  0
    0.6539   -6.6659    0.5169 O   0  0  0  0  0  0  0  0  0  0  0  0
   11.2207   -7.6742   -0.8871 C   0  0  0  0  0  0  0  0  0  0  0  0
   12.0221   -5.7950    0.3591 C   0  0  0  0  0  0  0  0  0  0  0  0
    6.9216   -0.1348   -0.1241 C   0  0  0  0  0  0  0  0  0  0  0  0
    5.6571    0.5878    0.1415 C   0  0  0  0  0  0  0  0  0  0  0  0
   13.2783   -6.6185    0.7468 C   0  0  0  0  0  0  0  0  0  0  0  0
   12.4679   -8.4826   -0.4567 C   0  0  0  0  0  0  0  0  0  0  0  0
   -0.5193   -6.2252   -0.1698 C   0  0  0  0  0  0  0  0  0  0  0  0
  2  1  2  0
  3  2  1  0
  4  1  1  0
  5  1  1  0
  6  4  1  0
  7  6  2  0
  8  5  1  0
  9  8  2  0
 10 15  1  0
 11  9  1  0
 12 13  1  0
  5 13  1  1
 14 11  2  0
 15  6  1  0
 16  3  2  0
 17 18  2  0
 18 22  1  0
 19  8  1  0
 20 12  2  0
 21  2  1  0
 22 19  2  0
 23 29  1  0
 24 12  1  0
 25 10  1  0
 26 10  1  0
 27 14  1  0
 28 17  1  0
 29 26  1  0
 30 25  1  0
 31 24  1  0
  7  3  1  0
 11 18  1  0
 23 30  1  0
 28 27  2  0
M  END
>  <Name>  (106) 
STOCK7S-50619

>  <id>  (106) 
STOCK7S-50619

>  <index>  (106) 
SC

>  <donors>  (106) 
1

>  <acceptors>  (106) 
9

>  <rotatable>  (106) 
7

>  <clogp>  (106) 
-0.087

>  <rings>  (106) 
4

>  <tpsa>  (106) 
114.99

>  <iupac_name>  (106) 
methyl 3-(3-hydroxy-6-(morpholinomethyl)-4-oxo-4H-pyran-2-yl)-3-(quinoxalin-6-yl)propanoate

>  <Num_H_Acceptors_Lipinski>  (106) 
9

>  <Num_H_Donors_Lipinski>  (106) 
1

>  <Molecular_Weight>  (106) 
425.43452

>  <ALogP>  (106) 
0.512

>  <Num_RotatableBonds>  (106) 
7

>  <Molecular_PolarSurfaceArea>  (106) 
111.08

>  <Num_H_Acceptors>  (106) 
9

>  <Num_H_Donors>  (106) 
1

>  <ADMET_Solubility>  (106) 
-2.163

>  <ADMET_Solubility_Level>  (106) 
3

>  <ADMET_Unknown_AlogP98>  (106) 
0

>  <ADMET_BBB>  (106) 
-1.706

>  <ADMET_BBB_Level>  (106) 
3

>  <ADMET_EXT_CYP2D6>  (106) 
-4.33872720743692

>  <ADMET_EXT_CYP2D6#Prediction>  (106) 
false

>  <ADMET_EXT_CYP2D6_Applicability>  (106) 
All properties and OPS components are within expected ranges.

>  <ADMET_EXT_CYP2D6_Applicability#MD>  (106) 
19.2585355575323

>  <ADMET_EXT_CYP2D6_Applicability#MDpvalue>  (106) 
2.49973329108523e-11

>  <ADMET_EXT_Hepatotoxic>  (106) 
-7.21798363640598

>  <ADMET_EXT_Hepatotoxic#Prediction>  (106) 
false

>  <ADMET_EXT_Hepatotoxic_Applicability>  (106) 
All properties and OPS components are within expected ranges.

>  <ADMET_EXT_Hepatotoxic_Applicability#MD>  (106) 
14.5960375019975

>  <ADMET_EXT_Hepatotoxic_Applicability#MDpvalue>  (106) 
3.30900558977246e-10

>  <ADMET_Absorption_Level>  (106) 
0

>  <ADMET_EXT_PPB>  (106) 
-4.85988155016037

>  <ADMET_EXT_PPB#Prediction>  (106) 
false

>  <ADMET_EXT_PPB_Applicability>  (106) 
All properties and OPS components are within expected ranges.

>  <ADMET_EXT_PPB_Applicability#MD>  (106) 
13.8974259468405

>  <ADMET_EXT_PPB_Applicability#MDpvalue>  (106) 
0.00016519694723649

>  <ADMET_AlogP98>  (106) 
0.512

>  <ADMET_PSA_2D>  (106) 
108.081

$$$$
STOCK7S-51260
     RDKit          3D

 27 29  0  0  0  0  0  0  0  0999 V2000
    1.3039   -2.5586    0.0759 C   0  0  0  0  0  0  0  0  0  0  0  0
    1.3069   -1.2646    0.0299 N   0  0  0  0  0  0  0  0  0  0  0  0
   -0.1371   -3.1459    0.0290 C   0  0  0  0  0  0  0  0  0  0  0  0
    2.5585   -3.2754    0.1671 N   0  0  0  0  0  0  0  0  0  0  0  0
   -0.2429   -0.6900   -0.0608 S   0  0  0  0  0  0  0  0  0  0  0  0
    5.0603   -4.5717   -0.1827 N   0  0  0  0  0  0  0  0  0  0  0  0
    6.3068   -5.2284   -0.0399 C   0  0  0  0  0  0  0  0  0  0  0  0
   -1.0833   -2.1057   -0.0476 C   0  0  0  0  0  0  0  0  0  0  0  0
   10.1166   -4.7113    0.0171 C   0  0  0  0  0  0  0  0  0  0  0  0
   13.8492   -5.5107    0.0033 C   0  0  0  0  0  0  0  0  0  0  0  0
    2.6348   -4.7029    0.3925 C   0  0  0  0  0  0  0  0  0  0  0  0
    3.7655   -2.4974    0.3102 C   0  0  0  0  0  0  0  0  0  0  0  0
    5.0007   -3.1426   -0.3670 C   0  0  0  0  0  0  0  0  0  0  0  0
    3.8573   -5.3600   -0.2869 C   0  0  0  0  0  0  0  0  0  0  0  0
   11.2662   -5.3901    0.0384 N   0  0  0  0  0  0  0  0  0  0  0  0
    6.3342   -6.4604    0.0572 O   0  0  0  0  0  0  0  0  0  0  0  0
    7.6094   -4.4542   -0.0366 C   0  0  0  0  0  0  0  0  0  0  0  0
   10.1323   -3.4762   -0.0297 O   0  0  0  0  0  0  0  0  0  0  0  0
   14.9036   -4.8648   -0.0029 O   0  0  0  0  0  0  0  0  0  0  0  0
   12.5246   -4.6807    0.0089 C   0  0  0  0  0  0  0  0  0  0  0  0
    8.7989   -5.4501    0.0421 C   0  0  0  0  0  0  0  0  0  0  0  0
   -0.5396   -4.4172    0.0505 C   0  0  0  0  0  0  0  0  0  0  0  0
   13.9806   -6.9515    0.0023 O   0  0  0  0  0  0  0  0  0  0  0  0
   -2.3954   -2.2936   -0.0985 C   0  0  0  0  0  0  0  0  0  0  0  0
   12.7850   -7.7350    0.0055 C   0  0  0  0  0  0  0  0  0  0  0  0
   -1.9961   -4.6935   -0.0044 C   0  0  0  0  0  0  0  0  0  0  0  0
   -2.8763   -3.6854   -0.0737 C   0  0  0  0  0  0  0  0  0  0  0  0
  2  1  2  0
  3  1  1  0
  4  1  1  0
  5  2  1  0
  6 13  1  0
  7  6  1  0
  8  3  2  0
  9 21  1  0
 10 20  1  0
 11  4  1  0
 12  4  1  0
 13 12  1  0
 14 11  1  0
 15  9  1  0
 16  7  2  0
 17  7  1  0
 18  9  2  0
 19 10  2  0
 20 15  1  0
 21 17  1  0
 22  3  1  0
 23 10  1  0
 24  8  1  0
 25 23  1  0
 26 22  2  0
 27 26  1  0
  8  5  1  0
  6 14  1  0
 27 24  2  0
M  END
>  <Name>  (107) 
STOCK7S-51260

>  <id>  (107) 
STOCK7S-51260

>  <index>  (107) 
SC

>  <donors>  (107) 
1

>  <acceptors>  (107) 
8

>  <rotatable>  (107) 
9

>  <clogp>  (107) 
1.756

>  <rings>  (107) 
3

>  <tpsa>  (107) 
91.84

>  <iupac_name>  (107) 
methyl 2-(4-(4-(benzo[d]isothiazol-3-yl)piperazin-1-yl)-4-oxobutanamido)acetate

>  <Num_H_Acceptors_Lipinski>  (107) 
8

>  <Num_H_Donors_Lipinski>  (107) 
1

>  <Molecular_Weight>  (107) 
390.45668

>  <ALogP>  (107) 
1.091

>  <Num_RotatableBonds>  (107) 
7

>  <Molecular_PolarSurfaceArea>  (107) 
120.08

>  <Num_H_Acceptors>  (107) 
6

>  <Num_H_Donors>  (107) 
1

>  <ADMET_Solubility>  (107) 
-2.485

>  <ADMET_Solubility_Level>  (107) 
3

>  <ADMET_Unknown_AlogP98>  (107) 
0

>  <ADMET_BBB>  (107) 
-1.28

>  <ADMET_BBB_Level>  (107) 
3

>  <ADMET_EXT_CYP2D6>  (107) 
-18.1742821129132

>  <ADMET_EXT_CYP2D6#Prediction>  (107) 
false

>  <ADMET_EXT_CYP2D6_Applicability>  (107) 
All properties and OPS components are within expected ranges.

>  <ADMET_EXT_CYP2D6_Applicability#MD>  (107) 
17.6622350348763

>  <ADMET_EXT_CYP2D6_Applicability#MDpvalue>  (107) 
1.75114636133309e-09

>  <ADMET_EXT_Hepatotoxic>  (107) 
-4.46072738189357

>  <ADMET_EXT_Hepatotoxic#Prediction>  (107) 
false

>  <ADMET_EXT_Hepatotoxic_Applicability>  (107) 
All properties and OPS components are within expected ranges.

>  <ADMET_EXT_Hepatotoxic_Applicability#MD>  (107) 
18.7205687430619

>  <ADMET_EXT_Hepatotoxic_Applicability#MDpvalue>  (107) 
2.92008463256418e-22

>  <ADMET_Absorption_Level>  (107) 
0

>  <ADMET_EXT_PPB>  (107) 
4.94927281836106

>  <ADMET_EXT_PPB#Prediction>  (107) 
true

>  <ADMET_EXT_PPB_Applicability>  (107) 
All properties and OPS components are within expected ranges.

>  <ADMET_EXT_PPB_Applicability#MD>  (107) 
15.1919151757521

>  <ADMET_EXT_PPB_Applicability#MDpvalue>  (107) 
2.2685596022124e-07

>  <ADMET_AlogP98>  (107) 
1.045

>  <ADMET_PSA_2D>  (107) 
91.608

$$$$
STOCK7S-53115
     RDKit          3D

 25 26  0  0  0  0  0  0  0  0999 V2000
    9.3290   -9.8966    0.0006 N   0  0  0  0  0  0  0  0  0  0  0  0
    8.3191  -12.0637    0.0005 C   0  0  0  0  0  0  0  0  0  0  0  0
   10.7968  -11.7762   -0.0003 C   0  0  0  0  0  0  0  0  0  0  0  0
   10.6213  -10.4540    0.0000 C   0  0  0  0  0  0  0  0  0  0  0  0
    8.1897  -10.7418    0.0008 C   0  0  0  0  0  0  0  0  0  0  0  0
    9.6372  -12.6468    0.0000 C   0  0  0  0  0  0  0  0  0  0  0  0
    9.0926   -8.4568    0.0010 C   0  0  0  0  0  0  0  0  0  0  0  0
   10.2838   -7.4609    0.0001 C   0  0  0  0  0  0  0  0  0  0  0  0
    9.7745  -13.8744   -0.0003 O   0  0  0  0  0  0  0  0  0  0  0  0
   11.4407   -7.8950   -0.0004 O   0  0  0  0  0  0  0  0  0  0  0  0
    4.1190   -4.7535    0.0040 C   0  0  0  0  0  0  0  0  0  0  0  0
    5.2540   -5.4462   -0.0047 C   0  0  0  0  0  0  0  0  0  0  0  0
   12.0816  -12.3374   -0.0008 O   0  0  0  0  0  0  0  0  0  0  0  0
   10.1590   -6.0919   -0.0002 N   0  0  0  0  0  0  0  0  0  0  0  0
    4.1681   -3.3560   -0.0011 O   0  0  0  0  0  0  0  0  0  0  0  0
    6.4927   -4.7729    0.0005 O   0  0  0  0  0  0  0  0  0  0  0  0
    6.8140  -10.1491    0.0013 C   0  0  0  0  0  0  0  0  0  0  0  0
    5.2045   -6.9191    0.0014 C   0  0  0  0  0  0  0  0  0  0  0  0
    2.8268   -5.4658   -0.0022 C   0  0  0  0  0  0  0  0  0  0  0  0
    8.9579   -5.1529    0.0002 C   0  0  0  0  0  0  0  0  0  0  0  0
    7.5265   -5.7496   -0.0007 C   0  0  0  0  0  0  0  0  0  0  0  0
   13.0939  -11.3205   -0.0010 C   0  0  0  0  0  0  0  0  0  0  0  0
    2.8485   -2.7985   -0.0002 C   0  0  0  0  0  0  0  0  0  0  0  0
    2.7923   -6.7975    0.0010 C   0  0  0  0  0  0  0  0  0  0  0  0
    4.0365   -7.5576   -0.0018 C   0  0  0  0  0  0  0  0  0  0  0  0
  2  5  2  0
  3  4  2  0
  4  1  1  0
  5  1  1  0
  6  2  1  0
  7  1  1  0
  8  7  1  0
  9  6  2  0
 10  8  2  0
 11 12  2  0
 12 16  1  0
 13  3  1  0
 14  8  1  0
 15 11  1  0
 16 21  1  0
 17  5  1  0
 18 12  1  0
 19 11  1  0
 20 14  1  0
 21 20  1  0
 22 13  1  0
 23 15  1  0
 24 25  1  0
 25 18  2  0
  3  6  1  0
 24 19  2  0
M  END
>  <Name>  (108) 
STOCK7S-53115

>  <id>  (108) 
STOCK7S-53115

>  <index>  (108) 
SC

>  <donors>  (108) 
1

>  <acceptors>  (108) 
7

>  <rotatable>  (108) 
9

>  <clogp>  (108) 
0.291

>  <rings>  (108) 
2

>  <tpsa>  (108) 
78.79

>  <iupac_name>  (108) 
2-(5-methoxy-2-methyl-4-oxopyridin-1(4H)-yl)-N-(2-(2-methoxyphenoxy)ethyl)acetamide

>  <Num_H_Acceptors_Lipinski>  (108) 
7

>  <Num_H_Donors_Lipinski>  (108) 
1

>  <Molecular_Weight>  (108) 
346.37768

>  <ALogP>  (108) 
0.762

>  <Num_RotatableBonds>  (108) 
8

>  <Molecular_PolarSurfaceArea>  (108) 
77.1

>  <Num_H_Acceptors>  (108) 
6

>  <Num_H_Donors>  (108) 
1

>  <ADMET_Solubility>  (108) 
-1.721

>  <ADMET_Solubility_Level>  (108) 
4

>  <ADMET_Unknown_AlogP98>  (108) 
0

>  <ADMET_BBB>  (108) 
-1.146

>  <ADMET_BBB_Level>  (108) 
3

>  <ADMET_EXT_CYP2D6>  (108) 
-6.56028829211814

>  <ADMET_EXT_CYP2D6#Prediction>  (108) 
false

>  <ADMET_EXT_CYP2D6_Applicability>  (108) 
All properties and OPS components are within expected ranges.

>  <ADMET_EXT_CYP2D6_Applicability#MD>  (108) 
16.2439512231369

>  <ADMET_EXT_CYP2D6_Applicability#MDpvalue>  (108) 
7.70997170152879e-08

>  <ADMET_EXT_Hepatotoxic>  (108) 
-6.25043185395824

>  <ADMET_EXT_Hepatotoxic#Prediction>  (108) 
false

>  <ADMET_EXT_Hepatotoxic_Applicability>  (108) 
All properties and OPS components are within expected ranges.

>  <ADMET_EXT_Hepatotoxic_Applicability#MD>  (108) 
11.792576951576

>  <ADMET_EXT_Hepatotoxic_Applicability#MDpvalue>  (108) 
0.000370872179553406

>  <ADMET_Absorption_Level>  (108) 
0

>  <ADMET_EXT_PPB>  (108) 
-3.04989850188941

>  <ADMET_EXT_PPB#Prediction>  (108) 
false

>  <ADMET_EXT_PPB_Applicability>  (108) 
All properties and OPS components are within expected ranges.

>  <ADMET_EXT_PPB_Applicability#MD>  (108) 
13.0833148366422

>  <ADMET_EXT_PPB_Applicability#MDpvalue>  (108) 
0.0042024435950187

>  <ADMET_AlogP98>  (108) 
0.762

>  <ADMET_PSA_2D>  (108) 
77.554

$$$$
STOCK7S-54136
     RDKit          3D

 24 26  0  0  0  0  0  0  0  0999 V2000
    7.7136   -0.6938    0.0576 N   0  0  0  0  0  0  0  0  0  0  0  0
    9.7519   -1.4969    0.0085 N   0  0  0  0  0  0  0  0  0  0  0  0
    0.2865   -1.9502    0.0553 N   0  0  0  0  0  0  0  0  0  0  0  0
    7.6464   -1.9599   -0.0192 C   0  0  0  0  0  0  0  0  0  0  0  0
    9.0772   -0.4209    0.0743 C   0  0  0  0  0  0  0  0  0  0  0  0
    1.4303   -2.7954   -0.2846 C   0  0  1  0  0  0  0  0  0  0  0  0
    8.9020   -2.4908   -0.0516 O   0  0  0  0  0  0  0  0  0  0  0  0
    2.7218   -2.0364   -0.0210 C   0  0  0  0  0  0  0  0  0  0  0  0
   -0.1047   -0.8400   -0.6938 C   0  0  0  0  0  0  0  0  0  0  0  0
   -0.5592   -2.1022    1.1611 C   0  0  0  0  0  0  0  0  0  0  0  0
    6.3655   -2.7665   -0.0834 C   0  0  0  0  0  0  0  0  0  0  0  0
    1.4873   -4.1819    0.4569 C   0  0  0  0  0  0  0  0  0  0  0  0
    2.6718   -0.8203    0.2721 O   0  0  0  0  0  0  0  0  0  0  0  0
   -1.1678   -0.3127   -0.0896 C   0  0  0  0  0  0  0  0  0  0  0  0
   -1.4624   -1.1265    1.0996 C   0  0  0  0  0  0  0  0  0  0  0  0
    3.9078   -2.6172   -0.1406 N   0  0  0  0  0  0  0  0  0  0  0  0
    5.1253   -1.8521    0.0540 C   0  0  0  0  0  0  0  0  0  0  0  0
    0.3158   -5.1243    0.1374 C   0  0  0  0  0  0  0  0  0  0  0  0
    9.6742    0.9565    0.1521 C   0  0  0  0  0  0  0  0  0  0  0  0
   -0.6045   -4.8122   -0.7763 C   0  0  0  0  0  0  0  0  0  0  0  0
    0.2148   -6.4034    0.8538 C   0  0  0  0  0  0  0  0  0  0  0  0
   -0.7905   -7.2407    0.5974 C   0  0  0  0  0  0  0  0  0  0  0  0
   -1.7125   -5.7331   -1.0566 C   0  0  0  0  0  0  0  0  0  0  0  0
   -1.8009   -6.8894   -0.4013 C   0  0  0  0  0  0  0  0  0  0  0  0
  2  5  2  0
  3  6  1  0
  4  1  2  0
  5  1  1  0
  6  8  1  0
  7  4  1  0
  8 16  1  0
  9  3  1  0
 10  3  1  0
 11  4  1  0
  6 12  1  1
 13  8  2  0
 14  9  2  0
 15 10  2  0
 16 17  1  0
 17 11  1  0
 18 12  1  0
 19  5  1  0
 20 18  2  0
 21 18  1  0
 22 21  2  0
 23 20  1  0
 24 22  1  0
  7  2  1  0
 14 15  1  0
 23 24  2  0
M  END
>  <Name>  (109) 
STOCK7S-54136

>  <id>  (109) 
STOCK7S-54136

>  <index>  (109) 
SC

>  <donors>  (109) 
1

>  <acceptors>  (109) 
6

>  <rotatable>  (109) 
8

>  <clogp>  (109) 
1.344

>  <rings>  (109) 
3

>  <tpsa>  (109) 
72.95

>  <iupac_name>  (109) 
(R)-N-(2-(3-methyl-1,2,4-oxadiazol-5-yl)ethyl)-3-phenyl-2-(1H-pyrrol-1-yl)propanamide

>  <Num_H_Acceptors_Lipinski>  (109) 
6

>  <Num_H_Donors_Lipinski>  (109) 
1

>  <Molecular_Weight>  (109) 
324.377

>  <ALogP>  (109) 
1.98

>  <Num_RotatableBonds>  (109) 
7

>  <Molecular_PolarSurfaceArea>  (109) 
72.95

>  <Num_H_Acceptors>  (109) 
3

>  <Num_H_Donors>  (109) 
1

>  <ADMET_Solubility>  (109) 
-2.957

>  <ADMET_Solubility_Level>  (109) 
3

>  <ADMET_Unknown_AlogP98>  (109) 
0

>  <ADMET_BBB>  (109) 
-0.658

>  <ADMET_BBB_Level>  (109) 
3

>  <ADMET_EXT_CYP2D6>  (109) 
-5.27408479396639

>  <ADMET_EXT_CYP2D6#Prediction>  (109) 
false

>  <ADMET_EXT_CYP2D6_Applicability>  (109) 
OPS PC8 out of range. Value: 5.0523. Training min, max, SD, explained variance: -4.2516, 4.6021, 1.692, 0.0374.

>  <ADMET_EXT_CYP2D6_Applicability#MD>  (109) 
10.1791854801827

>  <ADMET_EXT_CYP2D6_Applicability#MDpvalue>  (109) 
0.0894805207708664

>  <ADMET_EXT_Hepatotoxic>  (109) 
-5.85705070216718

>  <ADMET_EXT_Hepatotoxic#Prediction>  (109) 
false

>  <ADMET_EXT_Hepatotoxic_Applicability>  (109) 
All properties and OPS components are within expected ranges.
Unknown FCFP_2 feature: 1315386651: [*]CC(C[*])n(:[*]):[*]

>  <ADMET_EXT_Hepatotoxic_Applicability#MD>  (109) 
11.5896071536633

>  <ADMET_EXT_Hepatotoxic_Applicability#MDpvalue>  (109) 
0.00080575365580503

>  <ADMET_Absorption_Level>  (109) 
0

>  <ADMET_EXT_PPB>  (109) 
-0.00620587119986397

>  <ADMET_EXT_PPB#Prediction>  (109) 
true

>  <ADMET_EXT_PPB_Applicability>  (109) 
All properties and OPS components are within expected ranges.

>  <ADMET_EXT_PPB_Applicability#MD>  (109) 
11.9555257543284

>  <ADMET_EXT_PPB_Applicability#MDpvalue>  (109) 
0.104417969590514

>  <ADMET_AlogP98>  (109) 
1.98

>  <ADMET_PSA_2D>  (109) 
70.535

$$$$
STOCK7S-54394
     RDKit          3D

 28 29  0  0  0  0  0  0  0  0999 V2000
    7.7264   -4.8572   -0.0019 C   0  0  0  0  0  0  0  0  0  0  0  0
    6.6479   -4.0067   -0.0029 C   0  0  0  0  0  0  0  0  0  0  0  0
    6.8585   -2.5998   -0.0024 N   0  0  0  0  0  0  0  0  0  0  0  0
    3.1863  -13.5937    0.1139 C   0  0  0  0  0  0  0  0  0  0  0  0
    9.0607   -4.2433    0.0040 C   0  0  0  0  0  0  0  0  0  0  0  0
    9.2157   -2.8057    0.0041 C   0  0  0  0  0  0  0  0  0  0  0  0
    8.1389   -2.0339    0.0016 C   0  0  0  0  0  0  0  0  0  0  0  0
    5.9051  -10.9440   -0.0353 C   0  0  0  0  0  0  0  0  0  0  0  0
    7.7719   -6.3490   -0.0010 O   0  0  0  0  0  0  0  0  0  0  0  0
    4.5499  -12.9742    0.0373 C   0  0  0  0  0  0  0  0  0  0  0  0
    5.8981   -9.4957   -0.0348 N   0  0  0  0  0  0  0  0  0  0  0  0
    4.7013  -11.5188    0.0322 C   0  0  0  0  0  0  0  0  0  0  0  0
    6.9135   -8.6173    0.0049 C   0  0  0  0  0  0  0  0  0  0  0  0
    7.1230  -11.8532   -0.1138 C   0  0  0  0  0  0  0  0  0  0  0  0
   10.0647   -4.9649    0.0053 O   0  0  0  0  0  0  0  0  0  0  0  0
    5.6194  -13.7567   -0.0283 C   0  0  0  0  0  0  0  0  0  0  0  0
    8.0934   -8.9480    0.0669 O   0  0  0  0  0  0  0  0  0  0  0  0
    6.5792   -7.1672   -0.0142 C   0  0  0  0  0  0  0  0  0  0  0  0
    6.9475  -13.1735   -0.1083 C   0  0  0  0  0  0  0  0  0  0  0  0
    2.6591  -13.6198   -1.1604 F   0  0  0  0  0  0  0  0  0  0  0  0
    2.3529  -12.8178    0.8914 F   0  0  0  0  0  0  0  0  0  0  0  0
    3.2749  -14.8905    0.5782 F   0  0  0  0  0  0  0  0  0  0  0  0
    8.7533  -11.2958   -0.2286 Cl  0  0  0  0  0  0  0  0  0  0  0  0
    5.1671   -4.4042   -0.0083 C   0  0  0  0  0  0  0  0  0  0  0  0
    5.6883   -1.7463   -0.0033 C   0  0  0  0  0  0  0  0  0  0  0  0
    4.7979    0.4735   -0.0005 O   0  0  0  0  0  0  0  0  0  0  0  0
    6.0316   -0.2524    0.0005 C   0  0  0  0  0  0  0  0  0  0  0  0
    5.0558    1.8752    0.0022 C   0  0  0  0  0  0  0  0  0  0  0  0
  2  1  2  0
  3  2  1  0
  4 10  1  0
  5  1  1  0
  6  5  1  0
  7  6  2  0
  8 11  1  0
  9  1  1  0
 10 12  2  0
 11 13  1  0
 12  8  1  0
 13 18  1  0
 14  8  2  0
 15  5  2  0
 16 19  2  0
 17 13  2  0
 18  9  1  0
 19 14  1  0
 20  4  1  0
 21  4  1  0
 22  4  1  0
 23 14  1  0
 24  2  1  0
 25  3  1  0
 26 27  1  0
 27 25  1  0
 28 26  1  0
  7  3  1  0
 16 10  1  0
M  END
>  <Name>  (110) 
STOCK7S-54394

>  <id>  (110) 
STOCK7S-54394

>  <index>  (110) 
SC

>  <donors>  (110) 
1

>  <acceptors>  (110) 
6

>  <rotatable>  (110) 
9

>  <clogp>  (110) 
1.237

>  <rings>  (110) 
2

>  <tpsa>  (110) 
69.56

>  <iupac_name>  (110) 
N-(2-chloro-5-(trifluoromethyl)phenyl)-2-((1-(2-methoxyethyl)-2-methyl-4-oxo-1,4-dihydropyridin-3-yl)oxy)acetamide

>  <Num_H_Acceptors_Lipinski>  (110) 
6

>  <Num_H_Donors_Lipinski>  (110) 
1

>  <Molecular_Weight>  (110) 
418.79473

>  <ALogP>  (110) 
2.199

>  <Num_RotatableBonds>  (110) 
8

>  <Molecular_PolarSurfaceArea>  (110) 
67.87

>  <Num_H_Acceptors>  (110) 
5

>  <Num_H_Donors>  (110) 
1

>  <ADMET_Solubility>  (110) 
-3.54

>  <ADMET_Solubility_Level>  (110) 
3

>  <ADMET_Unknown_AlogP98>  (110) 
0

>  <ADMET_BBB>  (110) 
-0.56

>  <ADMET_BBB_Level>  (110) 
3

>  <ADMET_EXT_CYP2D6>  (110) 
-2.92616249359877

>  <ADMET_EXT_CYP2D6#Prediction>  (110) 
false

>  <ADMET_EXT_CYP2D6_Applicability>  (110) 
All properties and OPS components are within expected ranges.

>  <ADMET_EXT_CYP2D6_Applicability#MD>  (110) 
13.2447781703102

>  <ADMET_EXT_CYP2D6_Applicability#MDpvalue>  (110) 
0.000169632158071855

>  <ADMET_EXT_Hepatotoxic>  (110) 
-9.03990691722263

>  <ADMET_EXT_Hepatotoxic#Prediction>  (110) 
false

>  <ADMET_EXT_Hepatotoxic_Applicability>  (110) 
All properties and OPS components are within expected ranges.

>  <ADMET_EXT_Hepatotoxic_Applicability#MD>  (110) 
16.1519788138863

>  <ADMET_EXT_Hepatotoxic_Applicability#MDpvalue>  (110) 
1.98129953854823e-14

>  <ADMET_Absorption_Level>  (110) 
0

>  <ADMET_EXT_PPB>  (110) 
-1.49817971033359

>  <ADMET_EXT_PPB#Prediction>  (110) 
true

>  <ADMET_EXT_PPB_Applicability>  (110) 
All properties and OPS components are within expected ranges.

>  <ADMET_EXT_PPB_Applicability#MD>  (110) 
16.5182265815149

>  <ADMET_EXT_PPB_Applicability#MDpvalue>  (110) 
5.20472332796398e-11

>  <ADMET_AlogP98>  (110) 
2.199

>  <ADMET_PSA_2D>  (110) 
68.624

$$$$
STOCK7S-54683
     RDKit          3D

 22 23  0  0  0  0  0  0  0  0999 V2000
    9.3606   -3.0125    0.0000 N   0  0  0  0  0  0  0  0  0  0  0  0
   11.6857   -2.4357   -0.0002 C   0  0  0  0  0  0  0  0  0  0  0  0
    9.9134   -0.6779    0.0001 C   0  0  0  0  0  0  0  0  0  0  0  0
    9.0019   -1.6477    0.0001 C   0  0  0  0  0  0  0  0  0  0  0  0
   10.7362   -3.3734   -0.0002 C   0  0  0  0  0  0  0  0  0  0  0  0
   11.3127   -1.0313   -0.0001 C   0  0  0  0  0  0  0  0  0  0  0  0
    6.8506   -3.6370    0.0003 C   0  0  0  0  0  0  0  0  0  0  0  0
    8.3326   -4.0891    0.0000 C   0  0  0  0  0  0  0  0  0  0  0  0
    5.8087   -4.5753    0.0003 N   0  0  0  0  0  0  0  0  0  0  0  0
    6.5237   -2.4463    0.0004 O   0  0  0  0  0  0  0  0  0  0  0  0
    6.1409   -6.0489    0.0002 C   0  0  0  0  0  0  0  0  0  0  0  0
   12.1794   -0.1493   -0.0001 O   0  0  0  0  0  0  0  0  0  0  0  0
    9.5290    0.6738    0.0003 O   0  0  0  0  0  0  0  0  0  0  0  0
    5.0518   -7.1921   -0.0002 C   0  0  0  0  0  0  0  0  0  0  0  0
   11.1365   -4.8220   -0.0003 C   0  0  0  0  0  0  0  0  0  0  0  0
    4.4752   -4.0156    0.0007 C   0  0  0  0  0  0  0  0  0  0  0  0
    8.0972    0.8091    0.0004 C   0  0  0  0  0  0  0  0  0  0  0  0
    5.5348   -8.5823    0.0000 C   0  0  0  0  0  0  0  0  0  0  0  0
    3.7295   -6.9891   -0.0006 C   0  0  0  0  0  0  0  0  0  0  0  0
    4.6776   -9.6037   -0.0003 C   0  0  0  0  0  0  0  0  0  0  0  0
    2.7864   -8.1067   -0.0008 C   0  0  0  0  0  0  0  0  0  0  0  0
    3.2382   -9.3564   -0.0007 C   0  0  0  0  0  0  0  0  0  0  0  0
  2  5  2  0
  3  4  2  0
  4  1  1  0
  5  1  1  0
  6  2  1  0
  7  8  1  0
  8  1  1  0
  9  7  1  0
 10  7  2  0
 11  9  1  0
 12  6  2  0
 13  3  1  0
 14 11  1  0
 15  5  1  0
 16  9  1  0
 17 13  1  0
 18 14  2  0
 19 14  1  0
 20 18  1  0
 21 19  2  0
 22 21  1  0
  3  6  1  0
 20 22  2  0
M  END
>  <Name>  (111) 
STOCK7S-54683

>  <id>  (111) 
STOCK7S-54683

>  <index>  (111) 
SC

>  <donors>  (111) 
0

>  <acceptors>  (111) 
5

>  <rotatable>  (111) 
6

>  <clogp>  (111) 
0.455

>  <rings>  (111) 
2

>  <tpsa>  (111) 
51.54

>  <iupac_name>  (111) 
N-benzyl-2-(5-methoxy-2-methyl-4-oxopyridin-1(4H)-yl)-N-methylacetamide

>  <Num_H_Acceptors_Lipinski>  (111) 
5

>  <Num_H_Donors_Lipinski>  (111) 
0

>  <Molecular_Weight>  (111) 
300.3523

>  <ALogP>  (111) 
0.936

>  <Num_RotatableBonds>  (111) 
5

>  <Molecular_PolarSurfaceArea>  (111) 
49.85

>  <Num_H_Acceptors>  (111) 
4

>  <Num_H_Donors>  (111) 
0

>  <ADMET_Solubility>  (111) 
-2.014

>  <ADMET_Solubility_Level>  (111) 
3

>  <ADMET_Unknown_AlogP98>  (111) 
0

>  <ADMET_BBB>  (111) 
-0.66

>  <ADMET_BBB_Level>  (111) 
3

>  <ADMET_EXT_CYP2D6>  (111) 
-2.64329803401092

>  <ADMET_EXT_CYP2D6#Prediction>  (111) 
false

>  <ADMET_EXT_CYP2D6_Applicability>  (111) 
All properties and OPS components are within expected ranges.

>  <ADMET_EXT_CYP2D6_Applicability#MD>  (111) 
14.7458690843014

>  <ADMET_EXT_CYP2D6_Applicability#MDpvalue>  (111) 
3.94294693118259e-06

>  <ADMET_EXT_Hepatotoxic>  (111) 
-5.45710770152427

>  <ADMET_EXT_Hepatotoxic#Prediction>  (111) 
false

>  <ADMET_EXT_Hepatotoxic_Applicability>  (111) 
All properties and OPS components are within expected ranges.

>  <ADMET_EXT_Hepatotoxic_Applicability#MD>  (111) 
10.903385716315

>  <ADMET_EXT_Hepatotoxic_Applicability#MDpvalue>  (111) 
0.00838903359214955

>  <ADMET_Absorption_Level>  (111) 
0

>  <ADMET_EXT_PPB>  (111) 
-4.6759683064541

>  <ADMET_EXT_PPB#Prediction>  (111) 
false

>  <ADMET_EXT_PPB_Applicability>  (111) 
All properties and OPS components are within expected ranges.

>  <ADMET_EXT_PPB_Applicability#MD>  (111) 
12.7084699420166

>  <ADMET_EXT_PPB_Applicability#MDpvalue>  (111) 
0.0144590154017969

>  <ADMET_AlogP98>  (111) 
0.936

>  <ADMET_PSA_2D>  (111) 
50.236

$$$$
STOCK7S-55617
     RDKit          3D

 26 27  0  0  0  0  0  0  0  0999 V2000
    3.7141   -5.0205    0.1146 N   0  0  0  0  0  0  0  0  0  0  0  0
    2.7774   -6.1342   -0.0730 C   0  0  0  0  0  0  0  0  0  0  0  0
    2.8887   -3.8297    0.1539 C   0  0  0  0  0  0  0  0  0  0  0  0
    1.4961   -4.2339    0.0288 C   0  0  0  0  0  0  0  0  0  0  0  0
    1.4411   -5.6178   -0.1000 C   0  0  0  0  0  0  0  0  0  0  0  0
    5.2532   -5.0782    0.2748 C   0  0  2  0  0  0  0  0  0  0  0  0
    6.0697   -3.7920    0.0808 C   0  0  0  0  0  0  0  0  0  0  0  0
    8.0204   -2.6834   -0.0573 N   0  0  0  0  0  0  0  0  0  0  0  0
    7.4638   -3.8911    0.0183 O   0  0  0  0  0  0  0  0  0  0  0  0
    9.2895   -2.5807   -0.0637 C   0  0  0  0  0  0  0  0  0  0  0  0
    3.0288   -7.3375   -0.1592 O   0  0  0  0  0  0  0  0  0  0  0  0
    3.2639   -2.6655    0.3049 O   0  0  0  0  0  0  0  0  0  0  0  0
    5.5497   -2.6746    0.0604 O   0  0  0  0  0  0  0  0  0  0  0  0
    9.9493   -1.2285   -0.1298 C   0  0  0  0  0  0  0  0  0  0  0  0
    6.0555   -6.3318   -0.2376 C   0  0  0  0  0  0  0  0  0  0  0  0
   10.0763   -3.7310    0.0106 N   0  0  0  0  0  0  0  0  0  0  0  0
    6.2960   -9.0685   -0.3987 S   0  0  0  0  0  0  0  0  0  0  0  0
    0.4052   -3.4769    0.0369 C   0  0  0  0  0  0  0  0  0  0  0  0
    0.3075   -6.2922   -0.2184 C   0  0  0  0  0  0  0  0  0  0  0  0
   12.1259   -0.1279   -0.0857 O   0  0  0  0  0  0  0  0  0  0  0  0
   11.4821   -1.4059   -0.0440 C   0  0  0  0  0  0  0  0  0  0  0  0
    5.6776   -7.6321    0.4967 C   0  0  0  0  0  0  0  0  0  0  0  0
    5.5221  -10.5512    0.2956 C   0  0  0  0  0  0  0  0  0  0  0  0
   13.5440   -0.3044    0.0016 C   0  0  0  0  0  0  0  0  0  0  0  0
   -0.9439   -5.5094   -0.2153 C   0  0  0  0  0  0  0  0  0  0  0  0
   -0.8988   -4.1732   -0.0969 C   0  0  0  0  0  0  0  0  0  0  0  0
  2  1  1  0
  3  1  1  0
  4  3  1  0
  5  2  1  0
  6  1  1  0
  7  6  1  0
  8  9  1  0
  9  7  1  0
 10  8  2  0
 11  2  2  0
 12  3  2  0
 13  7  2  0
 14 10  1  0
  6 15  1  6
 16 10  1  0
 17 22  1  0
 18  4  2  0
 19  5  2  0
 20 21  1  0
 21 14  1  0
 22 15  1  0
 23 17  1  0
 24 20  1  0
 25 19  1  0
 26 18  1  0
  5  4  1  0
 25 26  2  0
M  END
>  <Name>  (112) 
STOCK7S-55617

>  <id>  (112) 
STOCK7S-55617

>  <index>  (112) 
SC

>  <donors>  (112) 
1

>  <acceptors>  (112) 
8

>  <rotatable>  (112) 
10

>  <clogp>  (112) 
1.817

>  <rings>  (112) 
2

>  <tpsa>  (112) 
111.29

>  <iupac_name>  (112) 
(Z)-N'-((2-(1,3-dioxoisoindolin-2-yl)-4-(methylthio)butanoyl)oxy)-3-methoxypropanimidamide

>  <Num_H_Acceptors_Lipinski>  (112) 
8

>  <Num_H_Donors_Lipinski>  (112) 
2

>  <Molecular_Weight>  (112) 
379.43074

>  <ALogP>  (112) 
0.403

>  <Num_RotatableBonds>  (112) 
10

>  <Molecular_PolarSurfaceArea>  (112) 
136.58

>  <Num_H_Acceptors>  (112) 
8

>  <Num_H_Donors>  (112) 
1

>  <ADMET_Solubility>  (112) 
-2.649

>  <ADMET_Solubility_Level>  (112) 
3

>  <ADMET_Unknown_AlogP98>  (112) 
0

>  <ADMET_BBB>  (112) 
-1.566

>  <ADMET_BBB_Level>  (112) 
3

>  <ADMET_EXT_CYP2D6>  (112) 
-5.08365777573538

>  <ADMET_EXT_CYP2D6#Prediction>  (112) 
false

>  <ADMET_EXT_CYP2D6_Applicability>  (112) 
All properties and OPS components are within expected ranges.

>  <ADMET_EXT_CYP2D6_Applicability#MD>  (112) 
15.7067311135033

>  <ADMET_EXT_CYP2D6_Applicability#MDpvalue>  (112) 
3.20008428885685e-07

>  <ADMET_EXT_Hepatotoxic>  (112) 
-4.47084599163698

>  <ADMET_EXT_Hepatotoxic#Prediction>  (112) 
false

>  <ADMET_EXT_Hepatotoxic_Applicability>  (112) 
All properties and OPS components are within expected ranges.

>  <ADMET_EXT_Hepatotoxic_Applicability#MD>  (112) 
13.9611417993649

>  <ADMET_EXT_Hepatotoxic_Applicability#MDpvalue>  (112) 
1.22698321722051e-08

>  <ADMET_Absorption_Level>  (112) 
0

>  <ADMET_EXT_PPB>  (112) 
-8.56006825261513

>  <ADMET_EXT_PPB#Prediction>  (112) 
false

>  <ADMET_EXT_PPB_Applicability>  (112) 
All properties and OPS components are within expected ranges.

>  <ADMET_EXT_PPB_Applicability#MD>  (112) 
18.7678813083088

>  <ADMET_EXT_PPB_Applicability#MDpvalue>  (112) 
1.55559259717232e-18

>  <ADMET_AlogP98>  (112) 
1.114

>  <ADMET_PSA_2D>  (112) 
110.978

$$$$
STOCK7S-61194
     RDKit          3D

 18 20  0  0  0  0  0  0  0  0999 V2000
    3.9408   -3.8937    0.0853 N   0  0  0  0  0  0  0  0  0  0  0  0
    5.1051   -4.7716    0.0128 C   0  0  0  0  0  0  0  0  0  0  0  0
    3.9315   -2.6124   -0.2114 N   0  0  0  0  0  0  0  0  0  0  0  0
    2.8115   -2.1855    0.0079 N   0  0  0  0  0  0  0  0  0  0  0  0
    2.0112   -3.1829    0.4698 N   0  0  0  0  0  0  0  0  0  0  0  0
    6.3947   -3.9824   -0.1411 C   0  0  0  0  0  0  0  0  0  0  0  0
    2.6950   -4.2493    0.5286 C   0  0  0  0  0  0  0  0  0  0  0  0
    7.5657   -4.5679    0.0840 N   0  0  0  0  0  0  0  0  0  0  0  0
    9.9388   -4.6651    0.5238 C   0  0  0  0  0  0  0  0  0  0  0  0
   11.2467   -4.3788   -0.2123 C   0  0  0  0  0  0  0  0  0  0  0  0
   10.4463   -5.6919   -0.4870 C   0  0  0  0  0  0  0  0  0  0  0  0
    6.3678   -2.7961   -0.4889 O   0  0  0  0  0  0  0  0  0  0  0  0
    8.7864   -3.8378   -0.0719 C   0  0  0  0  0  0  0  0  0  0  0  0
    5.0756   -5.7005   -1.2584 C   0  0  0  0  0  0  0  0  0  0  0  0
    5.0847   -5.7409    1.2524 C   0  0  0  0  0  0  0  0  0  0  0  0
    5.9051   -6.9796    0.9553 C   0  0  0  0  0  0  0  0  0  0  0  0
    4.1877   -6.9023   -1.0079 C   0  0  0  0  0  0  0  0  0  0  0  0
    5.0212   -7.8340   -0.0386 C   0  0  0  0  0  0  0  0  0  0  0  0
  2  1  1  0
  3  1  1  0
  4  3  2  0
  5  7  2  0
  6  2  1  0
  7  1  1  0
  8  6  1  0
  9 13  1  0
 10  9  1  0
 11  9  1  0
 12  6  2  0
 13  8  1  0
  2 14  1  0
  2 15  1  0
 16 15  1  0
 17 14  1  0
 18 16  1  0
  4  5  1  0
 17 18  1  0
 10 11  1  0
M  END
>  <Name>  (113) 
STOCK7S-61194

>  <id>  (113) 
STOCK7S-61194

>  <index>  (113) 
SC

>  <donors>  (113) 
1

>  <acceptors>  (113) 
6

>  <rotatable>  (113) 
5

>  <clogp>  (113) 
1.724

>  <rings>  (113) 
3

>  <tpsa>  (113) 
72.7

>  <iupac_name>  (113) 
N-(cyclopropylmethyl)-1-(1H-tetrazol-1-yl)cyclohexanecarboxamide

>  <Num_H_Acceptors_Lipinski>  (113) 
6

>  <Num_H_Donors_Lipinski>  (113) 
1

>  <Molecular_Weight>  (113) 
249.31216

>  <ALogP>  (113) 
0.948

>  <Num_RotatableBonds>  (113) 
4

>  <Molecular_PolarSurfaceArea>  (113) 
72.7

>  <Num_H_Acceptors>  (113) 
4

>  <Num_H_Donors>  (113) 
1

>  <ADMET_Solubility>  (113) 
-2.548

>  <ADMET_Solubility_Level>  (113) 
3

>  <ADMET_Unknown_AlogP98>  (113) 
0

>  <ADMET_BBB>  (113) 
-0.849

>  <ADMET_BBB_Level>  (113) 
3

>  <ADMET_EXT_CYP2D6>  (113) 
-8.47246899081851

>  <ADMET_EXT_CYP2D6#Prediction>  (113) 
false

>  <ADMET_EXT_CYP2D6_Applicability>  (113) 
All properties and OPS components are within expected ranges.
Unknown FCFP_2 feature: -1347167862: [*]:n(:[*])C(C)(C)C

>  <ADMET_EXT_CYP2D6_Applicability#MD>  (113) 
17.6731719422135

>  <ADMET_EXT_CYP2D6_Applicability#MDpvalue>  (113) 
1.70071219140422e-09

>  <ADMET_EXT_Hepatotoxic>  (113) 
-4.28192777940944

>  <ADMET_EXT_Hepatotoxic#Prediction>  (113) 
false

>  <ADMET_EXT_Hepatotoxic_Applicability>  (113) 
All properties and OPS components are within expected ranges.
Unknown FCFP_2 feature: -1347167862: [*]:n(:[*])C(C)(C)C

>  <ADMET_EXT_Hepatotoxic_Applicability#MD>  (113) 
14.92849984188

>  <ADMET_EXT_Hepatotoxic_Applicability#MDpvalue>  (113) 
4.56729552555237e-11

>  <ADMET_Absorption_Level>  (113) 
0

>  <ADMET_EXT_PPB>  (113) 
-5.12612552454382

>  <ADMET_EXT_PPB#Prediction>  (113) 
false

>  <ADMET_EXT_PPB_Applicability>  (113) 
All properties and OPS components are within expected ranges.
Unknown FCFP_2 feature: -1347167862: [*]:n(:[*])C(C)(C)C

>  <ADMET_EXT_PPB_Applicability#MD>  (113) 
12.8900217340572

>  <ADMET_EXT_PPB_Applicability#MDpvalue>  (113) 
0.00811238831759971

>  <ADMET_AlogP98>  (113) 
1.297

>  <ADMET_PSA_2D>  (113) 
69.242

$$$$
STOCK7S-65383
     RDKit          3D

 26 28  0  0  0  0  0  0  0  0999 V2000
    3.7121   -9.4371    0.1052 N   0  0  0  0  0  0  0  0  0  0  0  0
    7.2417   -2.7794   -0.0694 N   0  0  0  0  0  0  0  0  0  0  0  0
    3.7705   -8.0347    0.0429 C   0  0  0  0  0  0  0  0  0  0  0  0
    6.1121   -3.6108    0.0130 C   0  0  0  0  0  0  0  0  0  0  0  0
    8.3830   -0.5846   -0.0563 C   0  0  0  0  0  0  0  0  0  0  0  0
    4.9380  -10.2119    0.1438 C   0  0  0  0  0  0  0  0  0  0  0  0
    7.0718   -1.3435    0.0310 C   0  0  0  0  0  0  0  0  0  0  0  0
    4.7123  -11.6523   -0.3588 C   0  0  2  0  0  0  0  0  0  0  0  0
    9.5566   -1.1901    0.1252 N   0  0  0  0  0  0  0  0  0  0  0  0
    3.5556  -12.2686    0.1910 O   0  0  0  0  0  0  0  0  0  0  0  0
    4.9941   -3.1148    0.1910 O   0  0  0  0  0  0  0  0  0  0  0  0
    2.7245   -7.3764    0.0623 O   0  0  0  0  0  0  0  0  0  0  0  0
    8.3625    0.6320   -0.2743 O   0  0  0  0  0  0  0  0  0  0  0  0
    5.9434  -12.4978   -0.1811 C   0  0  0  0  0  0  0  0  0  0  0  0
    2.4200  -10.0838    0.2445 C   0  0  0  0  0  0  0  0  0  0  0  0
    8.5362   -3.3627   -0.3095 C   0  0  0  0  0  0  0  0  0  0  0  0
    9.6376   -2.5855    0.4197 C   0  0  0  0  0  0  0  0  0  0  0  0
    2.4269  -11.5343   -0.2927 C   0  0  0  0  0  0  0  0  0  0  0  0
    6.2653   -5.1076   -0.0914 C   0  0  0  0  0  0  0  0  0  0  0  0
    5.0982   -7.3291   -0.0419 C   0  0  0  0  0  0  0  0  0  0  0  0
    4.8917   -5.8001    0.0100 C   0  0  0  0  0  0  0  0  0  0  0  0
    5.8124  -13.9507   -0.0385 C   0  0  0  0  0  0  0  0  0  0  0  0
    7.1502  -11.9332   -0.1538 C   0  0  0  0  0  0  0  0  0  0  0  0
    8.3449  -12.7649    0.0192 C   0  0  0  0  0  0  0  0  0  0  0  0
    6.8980  -14.7063    0.1184 C   0  0  0  0  0  0  0  0  0  0  0  0
    8.2247  -14.0853    0.1487 C   0  0  0  0  0  0  0  0  0  0  0  0
  2  4  1  0
  3  1  1  0
  4 19  1  0
  5  7  1  0
  6  1  1  0
  7  2  1  0
  8  6  1  0
  9 17  1  0
 10 18  1  0
 11  4  2  0
 12  3  2  0
 13  5  2  0
  8 14  1  1
 15  1  1  0
 16  2  1  0
 17 16  1  0
 18 15  1  0
 19 21  1  0
 20  3  1  0
 21 20  1  0
 22 14  2  0
 23 14  1  0
 24 23  2  0
 25 22  1  0
 26 24  1  0
 10  8  1  0
 25 26  2  0
  9  5  1  0
M  END
>  <Name>  (114) 
STOCK7S-65383

>  <id>  (114) 
STOCK7S-65383

>  <index>  (114) 
SC

>  <donors>  (114) 
1

>  <acceptors>  (114) 
7

>  <rotatable>  (114) 
7

>  <clogp>  (114) 
1.128

>  <rings>  (114) 
3

>  <tpsa>  (114) 
78.9499999999999

>  <iupac_name>  (114) 
1-(3-oxopiperazin-1-yl)-5-(2-phenylmorpholino)pentane-1,5-dione

>  <Num_H_Acceptors_Lipinski>  (114) 
7

>  <Num_H_Donors_Lipinski>  (114) 
1

>  <Molecular_Weight>  (114) 
359.4195

>  <ALogP>  (114) 
-0.157

>  <Num_RotatableBonds>  (114) 
5

>  <Molecular_PolarSurfaceArea>  (114) 
78.95

>  <Num_H_Acceptors>  (114) 
4

>  <Num_H_Donors>  (114) 
1

>  <ADMET_Solubility>  (114) 
-1.174

>  <ADMET_Solubility_Level>  (114) 
4

>  <ADMET_Unknown_AlogP98>  (114) 
0

>  <ADMET_BBB>  (114) 
-1.474

>  <ADMET_BBB_Level>  (114) 
3

>  <ADMET_EXT_CYP2D6>  (114) 
-5.95296959983764

>  <ADMET_EXT_CYP2D6#Prediction>  (114) 
false

>  <ADMET_EXT_CYP2D6_Applicability>  (114) 
All properties and OPS components are within expected ranges.

>  <ADMET_EXT_CYP2D6_Applicability#MD>  (114) 
9.97526737051584

>  <ADMET_EXT_CYP2D6_Applicability#MDpvalue>  (114) 
0.121194058988205

>  <ADMET_EXT_Hepatotoxic>  (114) 
-8.72051032888807

>  <ADMET_EXT_Hepatotoxic#Prediction>  (114) 
false

>  <ADMET_EXT_Hepatotoxic_Applicability>  (114) 
All properties and OPS components are within expected ranges.

>  <ADMET_EXT_Hepatotoxic_Applicability#MD>  (114) 
9.08237218615619

>  <ADMET_EXT_Hepatotoxic_Applicability#MDpvalue>  (114) 
0.415866892912666

>  <ADMET_Absorption_Level>  (114) 
0

>  <ADMET_EXT_PPB>  (114) 
-5.0668734269178

>  <ADMET_EXT_PPB#Prediction>  (114) 
false

>  <ADMET_EXT_PPB_Applicability>  (114) 
All properties and OPS components are within expected ranges.

>  <ADMET_EXT_PPB_Applicability#MD>  (114) 
10.7018460529085

>  <ADMET_EXT_PPB_Applicability#MDpvalue>  (114) 
0.640560774364709

>  <ADMET_AlogP98>  (114) 
-0.157

>  <ADMET_PSA_2D>  (114) 
80.347

$$$$
STOCK7S-74761
     RDKit          3D

 27 29  0  0  0  0  0  0  0  0999 V2000
    9.3717  -14.1406    0.0590 C   0  0  0  0  0  0  0  0  0  0  0  0
    9.2684  -15.4991    0.2652 C   0  0  0  0  0  0  0  0  0  0  0  0
   10.4837  -16.3433    0.1478 C   0  0  0  0  0  0  0  0  0  0  0  0
    8.1104  -12.9403    0.2011 C   0  0  0  0  0  0  0  0  0  0  0  0
   10.7158  -13.6862   -0.2298 O   0  0  0  0  0  0  0  0  0  0  0  0
   11.7765  -15.7580   -0.0568 C   0  0  0  0  0  0  0  0  0  0  0  0
   11.8548  -14.4538   -0.2308 C   0  0  0  0  0  0  0  0  0  0  0  0
   -1.7755  -16.2801   -0.1514 N   0  0  0  0  0  0  0  0  0  0  0  0
   -0.4317  -14.6221    0.0379 N   0  0  0  0  0  0  0  0  0  0  0  0
   -0.5314  -15.9913   -0.1285 C   0  0  0  0  0  0  0  0  0  0  0  0
    5.6556  -13.6798    0.0348 C   0  0  0  0  0  0  0  0  0  0  0  0
    7.1232  -13.9681   -0.4828 C   0  0  0  0  0  0  0  0  0  0  0  0
   -2.5369  -15.0916   -0.0007 C   0  0  0  0  0  0  0  0  0  0  0  0
   -1.6912  -14.0714    0.1173 C   0  0  0  0  0  0  0  0  0  0  0  0
   10.3966  -17.5693    0.2890 O   0  0  0  0  0  0  0  0  0  0  0  0
    8.6633   -9.6484    0.0711 S   0  0  0  0  0  0  0  0  0  0  0  0
    5.4766  -12.8891    0.9740 O   0  0  0  0  0  0  0  0  0  0  0  0
    8.0984  -16.1971    0.6187 O   0  0  0  0  0  0  0  0  0  0  0  0
    4.5607  -14.2332   -0.5019 N   0  0  0  0  0  0  0  0  0  0  0  0
    7.4198  -11.8940   -0.8122 C   0  0  0  0  0  0  0  0  0  0  0  0
    9.4068  -12.1687   -0.2044 C   0  0  0  0  0  0  0  0  0  0  0  0
    0.7968  -13.8764    0.1839 C   0  0  0  0  0  0  0  0  0  0  0  0
    2.0556  -14.6593   -0.3020 C   0  0  0  0  0  0  0  0  0  0  0  0
   13.1958  -13.7981   -0.4227 C   0  0  0  0  0  0  0  0  0  0  0  0
    7.1306  -10.4817   -0.1761 C   0  0  0  0  0  0  0  0  0  0  0  0
    9.7144  -10.9217    0.6580 C   0  0  0  0  0  0  0  0  0  0  0  0
    3.2824  -13.7762    0.0414 C   0  0  0  0  0  0  0  0  0  0  0  0
  2  1  2  0
  3  2  1  0
  4  1  1  0
  5  1  1  0
  6  7  2  0
  7  5  1  0
  8 10  2  0
  9 22  1  0
 10  9  1  0
 11 12  1  0
 12  4  1  0
 13 14  2  0
 14  9  1  0
 15  3  2  0
 16 26  1  0
 17 11  2  0
 18  2  1  0
 19 11  1  0
 20  4  1  0
 21  4  1  0
 22 23  1  0
 23 27  1  0
 24  7  1  0
 25 20  1  0
 26 21  1  0
 27 19  1  0
  3  6  1  0
 25 16  1  0
 13  8  1  0
M  END
>  <Name>  (115) 
STOCK7S-74761

>  <id>  (115) 
STOCK7S-74761

>  <index>  (115) 
SC

>  <donors>  (115) 
2

>  <acceptors>  (115) 
7

>  <rotatable>  (115) 
8

>  <clogp>  (115) 
0.081

>  <rings>  (115) 
3

>  <tpsa>  (115) 
97.36

>  <iupac_name>  (115) 
N-(3-(1H-imidazol-1-yl)propyl)-2-(4-(3-hydroxy-6-methyl-4-oxo-4H-pyran-2-yl)tetrahydro-2H-thiopyran-4-yl)acetamide

>  <Num_H_Acceptors_Lipinski>  (115) 
7

>  <Num_H_Donors_Lipinski>  (115) 
2

>  <Molecular_Weight>  (115) 
391.4845

>  <ALogP>  (115) 
-0.059

>  <Num_RotatableBonds>  (115) 
7

>  <Molecular_PolarSurfaceArea>  (115) 
118.75

>  <Num_H_Acceptors>  (115) 
6

>  <Num_H_Donors>  (115) 
2

>  <ADMET_Solubility>  (115) 
-1.223

>  <ADMET_Solubility_Level>  (115) 
4

>  <ADMET_Unknown_AlogP98>  (115) 
0

>  <ADMET_BBB>  (115) 
-1.656

>  <ADMET_BBB_Level>  (115) 
3

>  <ADMET_EXT_CYP2D6>  (115) 
-8.06210133646609

>  <ADMET_EXT_CYP2D6#Prediction>  (115) 
false

>  <ADMET_EXT_CYP2D6_Applicability>  (115) 
All properties and OPS components are within expected ranges.

>  <ADMET_EXT_CYP2D6_Applicability#MD>  (115) 
15.7311194076375

>  <ADMET_EXT_CYP2D6_Applicability#MDpvalue>  (115) 
3.0005505444147e-07

>  <ADMET_EXT_Hepatotoxic>  (115) 
-4.4209284068108

>  <ADMET_EXT_Hepatotoxic#Prediction>  (115) 
false

>  <ADMET_EXT_Hepatotoxic_Applicability>  (115) 
All properties and OPS components are within expected ranges.

>  <ADMET_EXT_Hepatotoxic_Applicability#MD>  (115) 
12.5436787103948

>  <ADMET_EXT_Hepatotoxic_Applicability#MDpvalue>  (115) 
1.54967688309942e-05

>  <ADMET_Absorption_Level>  (115) 
0

>  <ADMET_EXT_PPB>  (115) 
-10.6513053132337

>  <ADMET_EXT_PPB#Prediction>  (115) 
false

>  <ADMET_EXT_PPB_Applicability>  (115) 
All properties and OPS components are within expected ranges.

>  <ADMET_EXT_PPB_Applicability#MD>  (115) 
16.3564514902408

>  <ADMET_EXT_PPB_Applicability#MDpvalue>  (115) 
1.5671149146112e-10

>  <ADMET_AlogP98>  (115) 
-0.059

>  <ADMET_PSA_2D>  (115) 
93.766

$$$$
STOCK7S-74796
     RDKit          3D

 30 32  0  0  0  0  0  0  0  0999 V2000
   12.1337   -2.2868    0.0488 C   0  0  0  0  0  0  0  0  0  0  0  0
   12.0461   -3.6494    0.2324 C   0  0  0  0  0  0  0  0  0  0  0  0
   13.2670   -4.4778    0.0860 C   0  0  0  0  0  0  0  0  0  0  0  0
   10.8661   -1.1112    0.2198 C   0  0  0  0  0  0  0  0  0  0  0  0
   13.4627   -1.8106   -0.2456 O   0  0  0  0  0  0  0  0  0  0  0  0
   14.5487   -3.8751   -0.1307 C   0  0  0  0  0  0  0  0  0  0  0  0
   14.6094   -2.5662   -0.2818 C   0  0  0  0  0  0  0  0  0  0  0  0
    2.1771   -2.5458   -0.2861 N   0  0  0  0  0  0  0  0  0  0  0  0
    8.3998   -1.8288    0.1132 C   0  0  0  0  0  0  0  0  0  0  0  0
   -0.4871   -3.5383    0.2810 N   0  0  0  0  0  0  0  0  0  0  0  0
    9.8490   -2.1218   -0.4479 C   0  0  0  0  0  0  0  0  0  0  0  0
   13.1942   -5.7078    0.2049 O   0  0  0  0  0  0  0  0  0  0  0  0
    7.2845   -2.2968   -0.4615 N   0  0  0  0  0  0  0  0  0  0  0  0
   11.3732    2.1904    0.1564 S   0  0  0  0  0  0  0  0  0  0  0  0
    8.2600   -1.1049    1.1111 O   0  0  0  0  0  0  0  0  0  0  0  0
   10.8866   -4.3621    0.5834 O   0  0  0  0  0  0  0  0  0  0  0  0
    3.4756   -1.9301    0.1495 C   0  0  0  0  0  0  0  0  0  0  0  0
    1.0709   -1.6383    0.0995 C   0  0  0  0  0  0  0  0  0  0  0  0
    1.9567   -3.8638    0.3541 C   0  0  0  0  0  0  0  0  0  0  0  0
    4.7752   -2.6453   -0.3929 C   0  0  1  0  0  0  0  0  0  0  0  0
   -0.2832   -2.2280   -0.3596 C   0  0  0  0  0  0  0  0  0  0  0  0
    0.6029   -4.4529   -0.1035 C   0  0  0  0  0  0  0  0  0  0  0  0
    6.0092   -1.8456    0.1018 C   0  0  0  0  0  0  0  0  0  0  0  0
   10.1268   -0.0517   -0.7448 C   0  0  0  0  0  0  0  0  0  0  0  0
   12.1147   -0.3080   -0.2807 C   0  0  0  0  0  0  0  0  0  0  0  0
    4.8884   -3.9937    0.0745 O   0  0  0  0  0  0  0  0  0  0  0  0
   -1.7764   -4.1012   -0.1469 C   0  0  0  0  0  0  0  0  0  0  0  0
   15.9392   -1.8940   -0.4877 C   0  0  0  0  0  0  0  0  0  0  0  0
    9.8428    1.3417   -0.0615 C   0  0  0  0  0  0  0  0  0  0  0  0
   12.4794    0.9066    0.6141 C   0  0  0  0  0  0  0  0  0  0  0  0
  2  1  2  0
  3  2  1  0
  4  1  1  0
  5  1  1  0
  6  7  2  0
  7  5  1  0
  8 17  1  0
  9 11  1  0
 10 22  1  0
 11  4  1  0
 12  3  2  0
 13  9  1  0
 14 30  1  0
 15  9  2  0
 16  2  1  0
 17 20  1  0
 18  8  1  0
 19  8  1  0
 20 23  1  0
 21 18  1  0
 22 19  1  0
 23 13  1  0
 24  4  1  0
 25  4  1  0
 20 26  1  1
 27 10  1  0
 28  7  1  0
 29 24  1  0
 30 25  1  0
  3  6  1  0
 29 14  1  0
 10 21  1  0
M  END
>  <Name>  (116) 
STOCK7S-74796

>  <id>  (116) 
STOCK7S-74796

>  <index>  (116) 
SC

>  <donors>  (116) 
3

>  <acceptors>  (116) 
8

>  <rotatable>  (116) 
8

>  <clogp>  (116) 
-1.392

>  <rings>  (116) 
3

>  <tpsa>  (116) 
106.25

>  <iupac_name>  (116) 
N-(2-hydroxy-3-(4-methylpiperazin-1-yl)propyl)-2-(4-(3-hydroxy-6-methyl-4-oxo-4H-pyran-2-yl)tetrahydro-2H-thiopyran-4-yl)acetamide

>  <Num_H_Acceptors_Lipinski>  (116) 
8

>  <Num_H_Donors_Lipinski>  (116) 
3

>  <Molecular_Weight>  (116) 
439.56882

>  <ALogP>  (116) 
-0.278

>  <Num_RotatableBonds>  (116) 
7

>  <Molecular_PolarSurfaceArea>  (116) 
127.64

>  <Num_H_Acceptors>  (116) 
8

>  <Num_H_Donors>  (116) 
3

>  <ADMET_Solubility>  (116) 
-1.272

>  <ADMET_Solubility_Level>  (116) 
4

>  <ADMET_Unknown_AlogP98>  (116) 
0

>  <ADMET_BBB>  (116) 
-1.896

>  <ADMET_BBB_Level>  (116) 
3

>  <ADMET_EXT_CYP2D6>  (116) 
-10.4754623587533

>  <ADMET_EXT_CYP2D6#Prediction>  (116) 
false

>  <ADMET_EXT_CYP2D6_Applicability>  (116) 
All properties and OPS components are within expected ranges.

>  <ADMET_EXT_CYP2D6_Applicability#MD>  (116) 
12.0039020807071

>  <ADMET_EXT_CYP2D6_Applicability#MDpvalue>  (116) 
0.00292322052431523

>  <ADMET_EXT_Hepatotoxic>  (116) 
-7.38609857212472

>  <ADMET_EXT_Hepatotoxic#Prediction>  (116) 
false

>  <ADMET_EXT_Hepatotoxic_Applicability>  (116) 
OPS PC27 out of range. Value: -2.4678. Training min, max, SD, explained variance: -2.3945, 4.4682, 0.8755, 0.0096.

>  <ADMET_EXT_Hepatotoxic_Applicability#MD>  (116) 
11.9295913340742

>  <ADMET_EXT_Hepatotoxic_Applicability#MDpvalue>  (116) 
0.000215227867706244

>  <ADMET_Absorption_Level>  (116) 
0

>  <ADMET_EXT_PPB>  (116) 
-11.0806500962537

>  <ADMET_EXT_PPB#Prediction>  (116) 
false

>  <ADMET_EXT_PPB_Applicability>  (116) 
All properties and OPS components are within expected ranges.

>  <ADMET_EXT_PPB_Applicability#MD>  (116) 
16.5747584357163

>  <ADMET_EXT_PPB_Applicability#MDpvalue>  (116) 
3.52338683175042e-11

>  <ADMET_AlogP98>  (116) 
-0.278

>  <ADMET_PSA_2D>  (116) 
104.677

$$$$
STOCK7S-74817
     RDKit          3D

 36 39  0  0  0  0  0  0  0  0999 V2000
    8.8571  -10.9585   -0.0379 C   0  0  0  0  0  0  0  0  0  0  0  0
    8.7687  -12.3037   -0.0795 C   0  0  0  0  0  0  0  0  0  0  0  0
    7.7125   -9.9321    0.0514 C   0  0  0  0  0  0  0  0  0  0  0  0
   10.0001  -13.0712   -0.1755 C   0  0  0  0  0  0  0  0  0  0  0  0
   10.1009  -10.3640   -0.0895 O   0  0  0  0  0  0  0  0  0  0  0  0
   11.2645  -12.3755   -0.2356 C   0  0  0  0  0  0  0  0  0  0  0  0
   11.2664  -11.0522   -0.1910 C   0  0  0  0  0  0  0  0  0  0  0  0
    7.8484   -6.9681   -0.1937 N   0  0  0  0  0  0  0  0  0  0  0  0
    4.9275   -9.9074    0.3188 C   0  0  0  0  0  0  0  0  0  0  0  0
    6.2626  -10.6339    0.2632 C   0  0  0  0  0  0  0  0  0  0  0  0
   -1.0717  -12.3899    0.0075 C   0  0  0  0  0  0  0  0  0  0  0  0
    9.9651  -14.3028   -0.2160 O   0  0  0  0  0  0  0  0  0  0  0  0
    8.2301   -8.9498    1.1579 C   0  0  0  0  0  0  0  0  0  0  0  0
    7.8481   -9.1266   -1.2782 C   0  0  0  0  0  0  0  0  0  0  0  0
    3.7988  -10.6365    0.2217 N   0  0  0  0  0  0  0  0  0  0  0  0
   -2.2837  -13.1169   -0.0430 N   0  0  0  0  0  0  0  0  0  0  0  0
    4.8515   -8.6811    0.4166 O   0  0  0  0  0  0  0  0  0  0  0  0
    7.5768  -13.0261   -0.0428 O   0  0  0  0  0  0  0  0  0  0  0  0
    7.5750   -5.5165   -0.2418 C   0  0  0  0  0  0  0  0  0  0  0  0
    0.1162  -13.0053    0.0486 C   0  0  0  0  0  0  0  0  0  0  0  0
   -1.1267  -10.9353    0.0229 C   0  0  0  0  0  0  0  0  0  0  0  0
    7.5682   -7.5643    1.1503 C   0  0  0  0  0  0  0  0  0  0  0  0
    7.1452   -7.7470   -1.2439 C   0  0  0  0  0  0  0  0  0  0  0  0
    2.5297   -9.9593    0.2233 C   0  0  0  0  0  0  0  0  0  0  0  0
    1.2990  -10.8648    0.1367 C   0  0  0  0  0  0  0  0  0  0  0  0
    1.3733  -12.2004    0.1166 C   0  0  0  0  0  0  0  0  0  0  0  0
   -0.0097  -10.2182    0.0841 C   0  0  0  0  0  0  0  0  0  0  0  0
    8.9065   -4.7582   -0.0765 C   0  0  0  0  0  0  0  0  0  0  0  0
   12.5616  -10.2978   -0.2539 C   0  0  0  0  0  0  0  0  0  0  0  0
   -2.2824  -14.5522   -0.0439 C   0  0  0  0  0  0  0  0  0  0  0  0
   -3.5389  -12.4087   -0.0718 C   0  0  0  0  0  0  0  0  0  0  0  0
    8.9198   -3.2971    0.1000 C   0  0  0  0  0  0  0  0  0  0  0  0
   10.0682   -5.4173   -0.1361 C   0  0  0  0  0  0  0  0  0  0  0  0
   11.3438   -4.6961   -0.0159 C   0  0  0  0  0  0  0  0  0  0  0  0
   10.0792   -2.6427    0.2047 C   0  0  0  0  0  0  0  0  0  0  0  0
   11.3491   -3.3742    0.1443 C   0  0  0  0  0  0  0  0  0  0  0  0
  2  1  2  0
  3  1  1  0
  4  2  1  0
  5  1  1  0
  6  7  2  0
  7  5  1  0
  8 23  1  0
  9 10  1  0
 10  3  1  0
 11 21  2  0
 12  4  2  0
 13  3  1  0
 14  3  1  0
 15  9  1  0
 16 11  1  0
 17  9  2  0
 18  2  1  0
 19  8  1  0
 20 26  2  0
 21 27  1  0
 22 13  1  0
 23 14  1  0
 24 15  1  0
 25 24  1  0
 26 25  1  0
 27 25  2  0
 28 19  1  0
 29  7  1  0
 30 16  1  0
 31 16  1  0
 32 28  2  0
 33 28  1  0
 34 33  2  0
 35 32  1  0
 36 34  1  0
  4  6  1  0
 22  8  1  0
 20 11  1  0
 35 36  2  0
M  END
>  <Name>  (117) 
STOCK7S-74817

>  <id>  (117) 
STOCK7S-74817

>  <index>  (117) 
SC

>  <donors>  (117) 
2

>  <acceptors>  (117) 
7

>  <rotatable>  (117) 
9

>  <clogp>  (117) 
3.046

>  <rings>  (117) 
4

>  <tpsa>  (117) 
86.02

>  <iupac_name>  (117) 
2-(1-benzyl-4-(3-hydroxy-6-methyl-4-oxo-4H-pyran-2-yl)piperidin-4-yl)-N-(4-(dimethylamino)benzyl)acetamide

>  <Num_H_Acceptors_Lipinski>  (117) 
7

>  <Num_H_Donors_Lipinski>  (117) 
2

>  <Molecular_Weight>  (117) 
489.6059

>  <ALogP>  (117) 
2.991

>  <Num_RotatableBonds>  (117) 
8

>  <Molecular_PolarSurfaceArea>  (117) 
82.11

>  <Num_H_Acceptors>  (117) 
6

>  <Num_H_Donors>  (117) 
2

>  <ADMET_Solubility>  (117) 
-3.555

>  <ADMET_Solubility_Level>  (117) 
3

>  <ADMET_Unknown_AlogP98>  (117) 
0

>  <ADMET_BBB>  (117) 
-0.556

>  <ADMET_BBB_Level>  (117) 
3

>  <ADMET_EXT_CYP2D6>  (117) 
-4.79368810217453

>  <ADMET_EXT_CYP2D6#Prediction>  (117) 
false

>  <ADMET_EXT_CYP2D6_Applicability>  (117) 
All properties and OPS components are within expected ranges.

>  <ADMET_EXT_CYP2D6_Applicability#MD>  (117) 
12.7891939051796

>  <ADMET_EXT_CYP2D6_Applicability#MDpvalue>  (117) 
0.000499775492353647

>  <ADMET_EXT_Hepatotoxic>  (117) 
-8.64949863012385

>  <ADMET_EXT_Hepatotoxic#Prediction>  (117) 
false

>  <ADMET_EXT_Hepatotoxic_Applicability>  (117) 
All properties and OPS components are within expected ranges.

>  <ADMET_EXT_Hepatotoxic_Applicability#MD>  (117) 
12.5892012674799

>  <ADMET_EXT_Hepatotoxic_Applicability#MDpvalue>  (117) 
1.25987155917841e-05

>  <ADMET_Absorption_Level>  (117) 
0

>  <ADMET_EXT_PPB>  (117) 
-4.11717291149254

>  <ADMET_EXT_PPB#Prediction>  (117) 
false

>  <ADMET_EXT_PPB_Applicability>  (117) 
All properties and OPS components are within expected ranges.

>  <ADMET_EXT_PPB_Applicability#MD>  (117) 
15.3510314649214

>  <ADMET_EXT_PPB_Applicability#MDpvalue>  (117) 
9.01217135236251e-08

>  <ADMET_AlogP98>  (117) 
2.991

>  <ADMET_PSA_2D>  (117) 
83.862

$$$$
STOCK7S-75913
     RDKit          3D

 26 28  0  0  0  0  0  0  0  0999 V2000
    9.2983   -5.5348   -0.0540 C   0  0  0  0  0  0  0  0  0  0  0  0
    8.1985   -6.3241   -0.1867 C   0  0  0  0  0  0  0  0  0  0  0  0
    8.3674   -7.7606   -0.2993 C   0  0  0  0  0  0  0  0  0  0  0  0
    9.2706   -3.9260    0.0827 C   0  0  0  0  0  0  0  0  0  0  0  0
   10.5381   -6.1628   -0.0381 O   0  0  0  0  0  0  0  0  0  0  0  0
    9.6827   -8.3266   -0.2790 C   0  0  0  0  0  0  0  0  0  0  0  0
   10.7199   -7.5136   -0.1507 C   0  0  0  0  0  0  0  0  0  0  0  0
    7.7072   -1.8283    0.3076 C   0  0  0  0  0  0  0  0  0  0  0  0
    7.8238   -3.3482    0.1996 C   0  0  0  0  0  0  0  0  0  0  0  0
    7.3776   -8.4922   -0.4126 O   0  0  0  0  0  0  0  0  0  0  0  0
    6.4971   -1.2737    0.3220 N   0  0  0  0  0  0  0  0  0  0  0  0
    2.8280   -1.7588    0.0733 N   0  0  0  0  0  0  0  0  0  0  0  0
    8.7000   -1.0932    0.3741 O   0  0  0  0  0  0  0  0  0  0  0  0
    6.8859   -5.8616   -0.2262 O   0  0  0  0  0  0  0  0  0  0  0  0
    4.1191   -1.1993    0.1306 C   0  0  0  0  0  0  0  0  0  0  0  0
    5.3147   -2.0895    0.2423 C   0  0  0  0  0  0  0  0  0  0  0  0
    9.9577   -3.2855   -1.1708 C   0  0  0  0  0  0  0  0  0  0  0  0
   10.1055   -3.4676    1.3331 C   0  0  0  0  0  0  0  0  0  0  0  0
   12.1078   -8.0799   -0.1286 C   0  0  0  0  0  0  0  0  0  0  0  0
    1.7917   -1.0227   -0.0211 C   0  0  0  0  0  0  0  0  0  0  0  0
    4.2872    0.1208    0.0861 C   0  0  0  0  0  0  0  0  0  0  0  0
   11.4483   -3.6837   -1.2879 C   0  0  0  0  0  0  0  0  0  0  0  0
   11.6006   -3.8498    1.2295 C   0  0  0  0  0  0  0  0  0  0  0  0
    1.9167    0.4357   -0.0739 C   0  0  0  0  0  0  0  0  0  0  0  0
    3.1248    0.9867   -0.0223 C   0  0  0  0  0  0  0  0  0  0  0  0
   12.2107   -3.1950   -0.0315 C   0  0  0  0  0  0  0  0  0  0  0  0
  2  1  2  0
  3  2  1  0
  4  1  1  0
  5  1  1  0
  6  7  2  0
  7  5  1  0
  8  9  1  0
  9  4  1  0
 10  3  2  0
 11  8  1  0
 12 15  2  0
 13  8  2  0
 14  2  1  0
 15 16  1  0
 16 11  1  0
 17  4  1  0
 18  4  1  0
 19  7  1  0
 20 12  1  0
 21 15  1  0
 22 17  1  0
 23 18  1  0
 24 25  1  0
 25 21  2  0
 26 23  1  0
  6  3  1  0
 26 22  1  0
 20 24  2  0
M  END
>  <Name>  (118) 
STOCK7S-75913

>  <id>  (118) 
STOCK7S-75913

>  <index>  (118) 
SC

>  <donors>  (118) 
2

>  <acceptors>  (118) 
6

>  <rotatable>  (118) 
6

>  <clogp>  (118) 
1.569

>  <rings>  (118) 
3

>  <tpsa>  (118) 
92.43

>  <iupac_name>  (118) 
2-(1-(3-hydroxy-6-methyl-4-oxo-4H-pyran-2-yl)cyclohexyl)-N-(pyridin-2-ylmethyl)acetamide

>  <Num_H_Acceptors_Lipinski>  (118) 
6

>  <Num_H_Donors_Lipinski>  (118) 
2

>  <Molecular_Weight>  (118) 
356.41556

>  <ALogP>  (118) 
1.81

>  <Num_RotatableBonds>  (118) 
5

>  <Molecular_PolarSurfaceArea>  (118) 
88.52

>  <Num_H_Acceptors>  (118) 
5

>  <Num_H_Donors>  (118) 
2

>  <ADMET_Solubility>  (118) 
-2.933

>  <ADMET_Solubility_Level>  (118) 
3

>  <ADMET_Unknown_AlogP98>  (118) 
0

>  <ADMET_BBB>  (118) 
-0.994

>  <ADMET_BBB_Level>  (118) 
3

>  <ADMET_EXT_CYP2D6>  (118) 
-7.91459506354912

>  <ADMET_EXT_CYP2D6#Prediction>  (118) 
false

>  <ADMET_EXT_CYP2D6_Applicability>  (118) 
All properties and OPS components are within expected ranges.

>  <ADMET_EXT_CYP2D6_Applicability#MD>  (118) 
13.9246110395903

>  <ADMET_EXT_CYP2D6_Applicability#MDpvalue>  (118) 
3.18868413027418e-05

>  <ADMET_EXT_Hepatotoxic>  (118) 
-6.89076357948062

>  <ADMET_EXT_Hepatotoxic#Prediction>  (118) 
false

>  <ADMET_EXT_Hepatotoxic_Applicability>  (118) 
All properties and OPS components are within expected ranges.

>  <ADMET_EXT_Hepatotoxic_Applicability#MD>  (118) 
12.6170254032415

>  <ADMET_EXT_Hepatotoxic_Applicability#MDpvalue>  (118) 
1.10924579811381e-05

>  <ADMET_Absorption_Level>  (118) 
0

>  <ADMET_EXT_PPB>  (118) 
-8.4667724846958

>  <ADMET_EXT_PPB#Prediction>  (118) 
false

>  <ADMET_EXT_PPB_Applicability>  (118) 
All properties and OPS components are within expected ranges.

>  <ADMET_EXT_PPB_Applicability#MD>  (118) 
13.0005540052421

>  <ADMET_EXT_PPB_Applicability#MDpvalue>  (118) 
0.00559907568803584

>  <ADMET_AlogP98>  (118) 
1.81

>  <ADMET_PSA_2D>  (118) 
88.418

$$$$
