Molecule
  DSViewer          3D                             0

 31 33  0  0  0  0  0  0  0  0999 V2000
   27.4863   -7.6652    0.2352 C   0  0
   27.5491   -9.0517   -0.2322 O   0  0
   28.8022   -9.8077    0.0867 C   0  0
   28.7619   -6.7825   -0.0870 C   0  0
   30.1131   -7.5327   -0.0166 C   0  0
   30.1495   -9.0212    0.0072 C   0  0
   31.2845   -9.6816    0.0168 N   0  0
   32.5765   -9.0721   -0.0016 N   0  0
   32.5830   -7.6117    0.0097 C   0  0
   31.2686   -6.8462   -0.0035 C   0  0
   33.9318   -9.9251   -0.0013 C   0  0
   33.9374  -11.2733   -0.0004 C   0  0
   35.2430  -12.0594   -0.0001 C   0  0
   36.4221  -11.4355   -0.0003 C   0  0
   36.4452   -9.9742   -0.0005 C   0  0
   35.3007   -9.2662   -0.0009 C   0  0
   31.2614   -5.3627   -0.0057 C   0  0
   31.2544   -4.2066   -0.0071 N   0  0
   33.6752   -6.9616    0.0027 N   0  0
   26.6228   -7.1916   -0.2318 H   0  0
   27.3523   -7.6805    1.3168 H   0  0
   28.7050  -10.1898    1.1029 H   0  0
   28.8681  -10.6424   -0.6111 H   0  0
   28.6499   -6.3824   -1.0947 H   0  0
   28.7939   -5.9613    0.6290 H   0  0
   32.9896  -11.8116    0.0001 H   0  0
   35.2129  -13.1490    0.0003 H   0  0
   37.3514  -12.0052   -0.0003 H   0  0
   37.4015   -9.4511   -0.0003 H   0  0
   35.3581   -8.1777   -0.0009 H   0  0
   33.6611   -5.8917    0.0112 H   0  0
  1  2  1  0  0  0
  1  4  1  0  0  0
  2  3  1  0  0  0
  3  6  1  0  0  0
  5  4  1  0  0  0
  5  6  1  0  0  0
  5 10  2  0  0  0
  6  7  2  0  0  0
  7  8  1  0  0  0
  8  9  1  0  0  0
  9 10  1  0  0  0
 11 12  2  0  0  0
 11 16  1  0  0  0
 12 13  1  0  0  0
 13 14  2  0  0  0
 14 15  1  0  0  0
 15 16  2  0  0  0
  8 11  1  0  0  0
 17 18  3  0  0  0
 10 17  1  0  0  0
  9 19  2  0  0  0
  1 20  1  0  0  0
  1 21  1  0  0  0
  3 22  1  0  0  0
  3 23  1  0  0  0
  4 24  1  0  0  0
  4 25  1  0  0  0
 12 26  1  0  0  0
 13 27  1  0  0  0
 14 28  1  0  0  0
 15 29  1  0  0  0
 16 30  1  0  0  0
 19 31  1  0  0  0
M  END
> <From>
www.bindingDB.org

> <BindingDB Reactant_set_id>
51075609

> <Ligand InChI>
InChI=1S/C14H12N4O/c15-8-12-11-6-7-19-9-13(11)17-18(14(12)16)10-4-2-1-3-5-10/h1-5,16H,6-7,9H2

> <Ligand InChI Key>
GWGKZWHKBUGZQH-UHFFFAOYSA-N

> <BindingDB MonomerID>
50439959

> <BindingDB Ligand Name>
CHEMBL2424687

> <Target Name>
Tyrosine-protein phosphatase non-receptor type 1

> <Target Source Organism According to Curator or DataSource>
Homo sapiens

> <IC50 (nM)>
350

> <Curation/DataSource>
ChEMBL

> <Article DOI>
10.1007/s00044-013-0797-8

> <BindingDB Entry DOI>
10.7270/Q2MP54Q2

> <Authors>
n/a

> <Institution>
n/a

> <Link to Ligand in BindingDB>
http://www.bindingdb.org/bind/chemsearch/marvin/MolStructure.jsp?monomerid=50439959

> <Link to Ligand-Target Pair in BindingDB>
http://www.bindingdb.org/jsp/dbsearch/PrimarySearch_ki.jsp?energyterm=kJ/mole&tag=r21&monomerid=50439959&enzyme=Tyrosine-protein+phosphatase+non-receptor+type+1&column=ki&startPg=0&Increment=50&submit
=Search

> <PubChem CID of Ligand>
91311876

> <PubChem SID of Ligand>
175452276

> <ChEMBL ID of Ligand>
CHEMBL2424687

> <ZINC ID of Ligand>
ZINC13838636

> <Number of Protein Chains in Target (bigger than 1 implies a multichain complex)>
1

> <BindingDB Target Chain Sequence>
MEMEKEFEQIDKSGSWAAIYQDIRHEASDFPCRVAKLPKNKNRNRYRDVSPFDHSRIKLHQEDNDYINASLIKMEEAQRSYILTQGPLPNTCGHFWEMVWEQKSRGVVMLNRVMEKGSLKCAQYWPQKEEKEMIFEDTNLKLTLISEDIKSYYTVRQLELENLTTQETREILHFHYTTWPDFGVPESPASFLNFLFKVRE
SGSLSPEHGPVVVHCSAGIGRSGTFCLADTCLLLMDKRKDPSSVDIKKVLLEMRKFRMGLIQTADQLRFSYLAVIEGAKFIMGDSSVQDQWKELSHEDLEPPPEHIPPPPRPPKRILEPHNGKCREFFPNHQWVKEETQEDKDCPIKEEKGSPLNAAPYGIESMSQDTEVRSRVVGGSLRGAQAASPAKGEPSLPEKDED
HALSYWKPFLVNMCVATVLTAGAYLCYRFLFNSNT

> <PDB ID(s) of Target Chain>
1BZJ,1G7G,1GFY,1JF7,1KAK,1KAV,1LQF,1NL9,1NNY,1NO6,1NZ7,1OEM,1OEO,1OES,1OET,1OEU,1OEV,1ONY,1ONZ,1PH0,1PXH,1PYN,1Q1M,1Q6J,1Q6M,1Q6N,1Q6P,1Q6S,1Q6T,1QXK,1SUG,1T48,1T49,1T4J,1WAX,1XBO,2AZR,2B07,2BGD,2BGE,
2CM2,2CM3,2CM7,2CM8,2CMA,2CMB,2CMC,2CNE,2CNF,2CNG,2CNH,2CNI,2F6T,2F6V,2F6W,2F6Y,2F6Z,2F70,2F71,2FJN,2H4G,2H4K,2HB1,2HNP,2HNQ,2QBP,2QBQ,2QBR,2QBS,2VEU,2VEV,2VEW,2VEX,2VEY,2ZMM,2ZN7,3A5J,3CWE,3D9C,3EAX,
3EB1,3EU0,3I7Z,3I80,3SME,4BJO,4I8N,4QBW,4Y14,5K9V,5K9W,5KA0,5KA1,5T19,6B90,6NTP,6W30,7KEY,7KLX,7LFO,7MN9,7MNA,8DU7,8G65,8G67,8G68,8G69,8G6A,8SKL

> <UniProt (SwissProt) Recommended Name of Target Chain>
Tyrosine-protein phosphatase non-receptor type 1

> <UniProt (SwissProt) Entry Name of Target Chain>
PTN1_HUMAN

> <UniProt (SwissProt) Primary ID of Target Chain>
P18031

> <UniProt (SwissProt) Secondary ID(s) of Target Chain>
Q5TGD8 Q9BQV9 Q9NQQ4

> <Clean Energy>
17.3925

$$$$
Molecule
  SciTegic10242319433D

 39 41  0  0  0  0            999 V2000
    4.2557  -19.0753    0.0280 N   0  0
    4.3585  -20.3472    0.0289 C   0  0
    5.6272  -20.9709    0.0764 N   0  0
    5.3981  -18.2751    0.0750 C   0  0
    6.5880  -18.8521    0.1228 C   0  0
    6.6871  -20.2695    0.1244 C   0  0
    7.9547  -20.8746    0.1428 N   0  0
    9.0413  -20.2021    0.1589 C   0  0
    8.9455  -18.7214    0.1778 C   0  0
    7.7834  -18.0822    0.1630 C   0  0
   10.4045  -20.9675    0.1129 C   0  0
   10.3990  -22.3180    0.2415 C   0  0
   11.6537  -23.0793    0.1844 C   0  0
   12.8247  -22.4846    0.0075 C   0  0
   12.9001  -21.0541   -0.1228 C   0  0
   11.8126  -20.2888   -0.0817 C   0  0
    5.2977  -16.8835    0.0666 N   0  0
    3.2050  -21.1302   -0.0262 N   0  0
    4.0127  -16.2542   -0.0008 C   0  0
   12.0973  -18.7903   -0.2215 C   0  0
   13.4451  -18.5838   -0.4240 F   0  0
   11.3826  -18.2538   -1.2735 F   0  0
   11.7088  -18.1443    0.9372 F   0  0
    8.9031  -23.2764    0.5214 S   0  0
    8.0377  -23.6918   -1.0210 C   0  0
    9.8651  -18.1368    0.2049 H   0  0
    7.7453  -16.9930    0.1811 H   0  0
   11.6208  -24.1636    0.2906 H   0  0
   13.7350  -23.0823   -0.0397 H   0  0
   13.8744  -20.5845   -0.2587 H   0  0
    6.1833  -16.2846    0.1106 H   0  0
    2.2431  -20.6634   -0.0687 H   0  0
    3.2823  -22.1974   -0.0258 H   0  0
    4.1373  -15.1714    0.0030 H   0  0
    3.4153  -16.5537    0.8603 H   0  0
    3.5064  -16.5579   -0.9171 H   0  0
    7.1428  -24.2702   -0.7917 H   0  0
    8.6960  -24.2800   -1.6604 H   0  0
    7.7545  -22.7747   -1.5376 H   0  0
  1  2  2  0
  2  3  1  0
  3  6  2  0
  5  4  2  0
  4  1  1  0
  5  6  1  0
  6  7  1  0
  7  8  2  0
  8  9  1  0
  9 10  2  0
 10  5  1  0
 11 12  2  0
 12 13  1  0
 13 14  2  0
 14 15  1  0
 15 16  2  0
 16 11  1  0
  8 11  1  0
  4 17  1  0
  2 18  1  0
 17 19  1  0
 16 20  1  0
 20 21  1  0
 20 22  1  0
 20 23  1  0
 12 24  1  0
 24 25  1  0
  9 26  1  0
 10 27  1  0
 13 28  1  0
 14 29  1  0
 15 30  1  0
 17 31  1  0
 18 32  1  0
 18 33  1  0
 19 34  1  0
 19 35  1  0
 19 36  1  0
 25 37  1  0
 25 38  1  0
 25 39  1  0
M  END
> <Name>
Molecule

> <Clean Energy>
24.7582

> <From>
www.bindingDB.org

> <BindingDB Reactant_set_id>
50981331

> <Ligand InChI>
InChI=1S/C16H14F3N5S/c1-21-13-8-6-7-10(22-14(8)24-15(20)23-13)12-9(16(17,18)19)4-3-5-11(12)25-2/h3-7H,1-2H3,(H3,20,21,22,23,24)

> <Ligand InChI Key>
HVQTXUUOMXQYKD-UHFFFAOYSA-N

> <BindingDB MonomerID>
50402300

> <BindingDB Ligand Name>
CHEMBL2206063

> <Target Name>
Tyrosine-protein phosphatase non-receptor type 1

> <Target Source Organism According to Curator or DataSource>
Homo sapiens

> <IC50 (nM)>
350

> <Curation/DataSource>
ChEMBL

> <Article DOI>
10.1016/j.bmcl.2012.10.035

> <BindingDB Entry DOI>
10.7270/Q2VQ33V6

> <PMID>
23122867

> <Authors>
Cheung, AW; Banner, B; Bose, J; Kim, K; Li, S; Marcopulos, N; Orzechowski, L; Sergi, JA; Thakkar, KC; Wang, BB; Yun, W; Zwingelstein, C; Berthel, S; Olivier, AR

> <Institution>
Roche Research Center

> <Link to Ligand in BindingDB>
http://www.bindingdb.org/bind/chemsearch/marvin/MolStructure.jsp?monomerid=50402300

> <Link to Ligand-Target Pair in BindingDB>
http://www.bindingdb.org/jsp/dbsearch/PrimarySearch_ki.jsp?energyterm=kJ/mole&tag=pol&polymerid=2622&target=Tyrosine-protein+phosphatase+non-receptor+type+1&column=ki&startPg=0&Increment=50&submit=Sea
rch
http://www.bindingdb.org/jsp/dbsearch/PrimarySearch_ki.jsp?energyterm=kJ/mole&tag=r21&monomerid=50402300&enzyme=Tyrosine-protein+phosphatase+non-receptor+type+1&column=ki&startPg=0&Increment=50&submit
=Search

> <PubChem CID of Ligand>
15981929

> <PubChem SID of Ligand>
163351324

> <ChEMBL ID of Ligand>
CHEMBL2206063

> <ZINC ID of Ligand>
ZINC34843520

> <Number of Protein Chains in Target (bigger than 1 implies a multichain complex)>
1

> <BindingDB Target Chain Sequence>
MEMEKEFEQIDKSGSWAAIYQDIRHEASDFPCRVAKLPKNKNRNRYRDVSPFDHSRIKLHQEDNDYINASLIKMEEAQRSYILTQGPLPNTCGHFWEMVWEQKSRGVVMLNRVMEKGSLKCAQYWPQKEEKEMIFEDTNLKLTLISEDIKSYYTVRQLELENLTTQETREILHFHYTTWPDFGVPESPASFLNFLFKVRE
SGSLSPEHGPVVVHCSAGIGRSGTFCLADTCLLLMDKRKDPSSVDIKKVLLEMRKFRMGLIQTADQLRFSYLAVIEGAKFIMGDSSVQDQWKELSHEDLEPPPEHIPPPPRPPKRILEPHNGKCREFFPNHQWVKEETQEDKDCPIKEEKGSPLNAAPYGIESMSQDTEVRSRVVGGSLRGAQAASPAKGEPSLPEKDED
HALSYWKPFLVNMCVATVLTAGAYLCYRFLFNSNT

> <PDB ID(s) of Target Chain>
1BZJ,1G7G,1GFY,1JF7,1KAK,1KAV,1LQF,1NL9,1NNY,1NO6,1NZ7,1OEM,1OEO,1OES,1OET,1OEU,1OEV,1ONY,1ONZ,1PH0,1PXH,1PYN,1Q1M,1Q6J,1Q6M,1Q6N,1Q6P,1Q6S,1Q6T,1QXK,1SUG,1T48,1T49,1T4J,1WAX,1XBO,2AZR,2B07,2BGD,2BGE,
2CM2,2CM3,2CM7,2CM8,2CMA,2CMB,2CMC,2CNE,2CNF,2CNG,2CNH,2CNI,2F6T,2F6V,2F6W,2F6Y,2F6Z,2F70,2F71,2FJN,2H4G,2H4K,2HB1,2HNP,2HNQ,2QBP,2QBQ,2QBR,2QBS,2VEU,2VEV,2VEW,2VEX,2VEY,2ZMM,2ZN7,3A5J,3CWE,3D9C,3EAX,
3EB1,3EU0,3I7Z,3I80,3SME,4BJO,4I8N,4QBW,4Y14,5K9V,5K9W,5KA0,5KA1,5T19,6B90,6NTP,6W30,7KEY,7KLX,7LFO,7MN9,7MNA,8DU7,8G65,8G67,8G68,8G69,8G6A,8SKL

> <UniProt (SwissProt) Recommended Name of Target Chain>
Tyrosine-protein phosphatase non-receptor type 1

> <UniProt (SwissProt) Entry Name of Target Chain>
PTN1_HUMAN

> <UniProt (SwissProt) Primary ID of Target Chain>
P18031

> <UniProt (SwissProt) Secondary ID(s) of Target Chain>
Q5TGD8 Q9BQV9 Q9NQQ4

$$$$
Molecule
  SciTegic10242319433D

 96100  0  0  0  0            999 V2000
   22.0122  -22.4373   -1.2360 O   0  0
   21.5708  -23.2153   -0.0107 S   0  0
   22.0742  -22.4818    1.2184 O   0  0
   -3.2125  -22.7733   -1.3202 O   0  0
   -2.7511  -23.2947    0.0277 S   0  0
   -3.2390  -22.3310    1.0937 O   0  0
    8.7638  -21.7782    0.0008 C   0  0
   10.1648  -21.7650    0.0025 C   0  0
   10.8973  -20.5775    0.0052 C   0  0
   10.1750  -19.3601    0.0061 C   0  0
    8.7716  -19.3925    0.0057 C   0  0
    8.0371  -20.5902    0.0029 C   0  0
    6.4016  -20.5801    0.0048 C   0  0
    5.7266  -21.9435   -0.0241 O   0  0
    4.2062  -21.9902    0.0004 C   0  0
   12.5190  -20.6305    0.0075 C   0  0
   13.1465  -21.9852    0.0528 O   0  0
   14.6462  -22.0056    0.0456 C   0  0
    3.4088  -20.8465    0.0534 C   0  0
    2.0112  -20.9461    0.0734 C   0  0
    1.3614  -22.1817    0.0426 C   0  0
    2.1520  -23.3272   -0.0101 C   0  0
    3.5491  -23.2255   -0.0301 C   0  0
   15.3230  -23.2275    0.0859 C   0  0
   16.7202  -23.2964    0.0763 C   0  0
   17.4831  -22.1330    0.0261 C   0  0
   16.8129  -20.9096   -0.0124 C   0  0
   15.4149  -20.8424   -0.0028 C   0  0
   10.8965  -17.9798    0.0058 C   0  0
   12.1279  -17.9261   -0.0104 O   0  0
   -0.1837  -22.2404    0.0556 C   0  0
   -0.9180  -23.3733    0.0425 C   0  0
   -3.4940  -24.8260    0.2729 O   0  0
   -4.9338  -24.6711    0.1812 C   0  0
   -5.6436  -26.0393    0.3089 C   0  0
   19.0149  -22.1679    0.0054 C   0  0
   19.7485  -23.2978    0.0294 C   0  0
   22.3017  -24.7682   -0.0584 O   0  0
   23.7405  -24.6113   -0.1022 C   0  0
   24.4385  -25.9895   -0.1545 C   0  0
   10.1922  -16.8149    0.0181 N   0  0
   10.8075  -15.4670    0.0033 C   0  0
   12.1856  -15.2763   -0.0498 C   0  0
   12.7377  -13.9989   -0.0755 C   0  0
   11.9345  -12.8643   -0.0489 C   0  0
   10.5527  -13.0533    0.0079 C   0  0
    9.9974  -14.3333    0.0333 C   0  0
   12.6327  -11.5669   -0.0943 O   0  0
   11.9826  -10.2583   -0.0774 C   0  0
   12.8102   -9.1401   -0.1496 C   0  0
   12.2837   -7.8521   -0.1419 C   0  0
   10.9105   -7.6638   -0.0581 C   0  0
   10.0745   -8.7708    0.0161 C   0  0
   10.6077  -10.0538    0.0055 C   0  0
    8.5963   -8.5887    0.1172 C   0  0
    8.3240   -7.7206    1.1531 F   0  0
    7.9731   -9.8049    0.3025 F   0  0
    8.1421   -7.9825   -1.0353 F   0  0
    8.2353  -22.7315   -0.0023 H   0  0
   10.7005  -22.7143    0.0017 H   0  0
    8.2283  -18.4476    0.0077 H   0  0
    6.0724  -20.0641    0.9067 H   0  0
    6.0705  -20.0254   -0.8731 H   0  0
   12.8667  -20.1359   -0.8994 H   0  0
   12.8660  -20.0767    0.8799 H   0  0
    3.8788  -19.8634    0.0796 H   0  0
    1.4151  -20.0345    0.1140 H   0  0
    1.6804  -24.3096   -0.0359 H   0  0
    4.1437  -24.1381   -0.0708 H   0  0
   14.7467  -24.1519    0.1260 H   0  0
   17.2147  -24.2673    0.1083 H   0  0
   17.3907  -19.9861   -0.0508 H   0  0
   14.9214  -19.8710   -0.0334 H   0  0
   -0.7222  -21.2930    0.0771 H   0  0
   -0.4181  -24.3420    0.0406 H   0  0
   -5.2742  -24.0160    0.9832 H   0  0
   -5.1845  -24.2272   -0.7823 H   0  0
   -6.7219  -25.8978    0.2371 H   0  0
   -5.3997  -26.4872    1.2722 H   0  0
   -5.3100  -26.6984   -0.4927 H   0  0
   19.5458  -21.2166   -0.0310 H   0  0
   19.2506  -24.2664    0.0730 H   0  0
   24.0112  -24.0393   -0.9896 H   0  0
   24.0694  -24.0773    0.7893 H   0  0
   25.5189  -25.8491   -0.1869 H   0  0
   24.1157  -26.5272   -1.0460 H   0  0
   24.1739  -26.5653    0.7324 H   0  0
    9.1242  -16.8766    0.0397 H   0  0
   12.8449  -16.1441   -0.0717 H   0  0
   13.8210  -13.8857   -0.1173 H   0  0
    9.8948  -12.1845    0.0328 H   0  0
    8.9143  -14.4482    0.0773 H   0  0
   13.8898   -9.2766   -0.2133 H   0  0
   12.9492   -6.9909   -0.2017 H   0  0
   10.4925   -6.6572   -0.0506 H   0  0
    9.9397  -10.9132    0.0629 H   0  0
  2  1  2  0
  3  2  2  0
  5  4  2  0
  6  5  2  0
  7  8  4  0
  8  9  4  0
  9 10  4  0
 10 11  4  0
 11 12  4  0
 12  7  4  0
 12 13  1  0
 13 14  1  0
 14 15  1  0
  9 16  1  0
 16 17  1  0
 17 18  1  0
 15 19  4  0
 19 20  4  0
 20 21  4  0
 21 22  4  0
 22 23  4  0
 23 15  4  0
 18 24  4  0
 24 25  4  0
 25 26  4  0
 26 27  4  0
 27 28  4  0
 28 18  4  0
 10 29  1  0
 29 30  2  0
 21 31  1  0
 31 32  2  0
 32  5  1  0
  5 33  1  0
 33 34  1  0
 34 35  1  0
 26 36  1  0
 36 37  2  0
 37  2  1  0
  2 38  1  0
 38 39  1  0
 39 40  1  0
 29 41  1  0
 41 42  1  0
 42 43  4  0
 43 44  4  0
 44 45  4  0
 45 46  4  0
 46 47  4  0
 47 42  4  0
 45 48  1  0
 48 49  1  0
 49 50  4  0
 50 51  4  0
 51 52  4  0
 52 53  4  0
 53 54  4  0
 54 49  4  0
 53 55  1  0
 55 56  1  0
 55 57  1  0
 55 58  1  0
  7 59  1  0
  8 60  1  0
 11 61  1  0
 13 62  1  0
 13 63  1  0
 16 64  1  0
 16 65  1  0
 19 66  1  0
 20 67  1  0
 22 68  1  0
 23 69  1  0
 24 70  1  0
 25 71  1  0
 27 72  1  0
 28 73  1  0
 31 74  1  0
 32 75  1  0
 34 76  1  0
 34 77  1  0
 35 78  1  0
 35 79  1  0
 35 80  1  0
 36 81  1  0
 37 82  1  0
 39 83  1  0
 39 84  1  0
 40 85  1  0
 40 86  1  0
 40 87  1  0
 41 88  1  0
 43 89  1  0
 44 90  1  0
 46 91  1  0
 47 92  1  0
 50 93  1  0
 51 94  1  0
 52 95  1  0
 54 96  1  0
M  END
> <Name>
Molecule

> <Clean Energy>
44.027

> <From>
www.bindingDB.org

> <BindingDB Reactant_set_id>
50808763

> <Ligand InChI>
InChI=1S/C42H38F3NO10S2/c1-3-54-57(48,49)24-22-30-9-16-36(17-10-30)52-28-32-8-13-33(29-53-37-18-11-31(12-19-37)23-25-58(50,51)55-4-2)40(26-32)41(47)46-35-14-20-38(21-15-35)56-39-7-5-6-34(27-39)42(43,4
4)45/h5-27H,3-4,28-29H2,1-2H3,(H,46,47)/b24-22+,25-23+

> <Ligand InChI Key>
DACRDBBZZLRWTQ-BQASJOSNSA-N

> <BindingDB MonomerID>
50256861

> <BindingDB Ligand Name>
CHEMBL4075069

> <Target Name>
Tyrosine-protein phosphatase non-receptor type 1

> <Target Source Organism According to Curator or DataSource>
Homo sapiens

> <IC50 (nM)>
350

> <Curation/DataSource>
ChEMBL

> <Article DOI>
10.1016/j.bmcl.2017.03.060

> <BindingDB Entry DOI>
10.7270/Q2FR0024

> <PMID>
28372909

> <Authors>
Yang, F; Xie, F; Zhang, Y; Xia, Y; Liu, W; Jiang, F; Lam, C; Qiao, Y; Xie, D; Li, J; Fu, L

> <Institution>
Shanghai Jiao Tong University

> <Link to Ligand in BindingDB>
http://www.bindingdb.org/bind/chemsearch/marvin/MolStructure.jsp?monomerid=50256861

> <Link to Ligand-Target Pair in BindingDB>
http://www.bindingdb.org/jsp/dbsearch/PrimarySearch_ki.jsp?energyterm=kJ/mole&tag=pol&polymerid=2622&target=Tyrosine-protein+phosphatase+non-receptor+type+1&column=ki&startPg=0&Increment=50&submit=Sea
rch
http://www.bindingdb.org/jsp/dbsearch/PrimarySearch_ki.jsp?energyterm=kJ/mole&tag=r21&monomerid=50256861&enzyme=Tyrosine-protein+phosphatase+non-receptor+type+1&column=ki&startPg=0&Increment=50&submit
=Search

> <PubChem CID of Ligand>
137651804

> <PubChem SID of Ligand>
402360902

> <Number of Protein Chains in Target (bigger than 1 implies a multichain complex)>
1

> <BindingDB Target Chain Sequence>
MEMEKEFEQIDKSGSWAAIYQDIRHEASDFPCRVAKLPKNKNRNRYRDVSPFDHSRIKLHQEDNDYINASLIKMEEAQRSYILTQGPLPNTCGHFWEMVWEQKSRGVVMLNRVMEKGSLKCAQYWPQKEEKEMIFEDTNLKLTLISEDIKSYYTVRQLELENLTTQETREILHFHYTTWPDFGVPESPASFLNFLFKVRE
SGSLSPEHGPVVVHCSAGIGRSGTFCLADTCLLLMDKRKDPSSVDIKKVLLEMRKFRMGLIQTADQLRFSYLAVIEGAKFIMGDSSVQDQWKELSHEDLEPPPEHIPPPPRPPKRILEPHNGKCREFFPNHQWVKEETQEDKDCPIKEEKGSPLNAAPYGIESMSQDTEVRSRVVGGSLRGAQAASPAKGEPSLPEKDED
HALSYWKPFLVNMCVATVLTAGAYLCYRFLFNSNT

> <PDB ID(s) of Target Chain>
1BZJ,1G7G,1GFY,1JF7,1KAK,1KAV,1LQF,1NL9,1NNY,1NO6,1NZ7,1OEM,1OEO,1OES,1OET,1OEU,1OEV,1ONY,1ONZ,1PH0,1PXH,1PYN,1Q1M,1Q6J,1Q6M,1Q6N,1Q6P,1Q6S,1Q6T,1QXK,1SUG,1T48,1T49,1T4J,1WAX,1XBO,2AZR,2B07,2BGD,2BGE,
2CM2,2CM3,2CM7,2CM8,2CMA,2CMB,2CMC,2CNE,2CNF,2CNG,2CNH,2CNI,2F6T,2F6V,2F6W,2F6Y,2F6Z,2F70,2F71,2FJN,2H4G,2H4K,2HB1,2HNP,2HNQ,2QBP,2QBQ,2QBR,2QBS,2VEU,2VEV,2VEW,2VEX,2VEY,2ZMM,2ZN7,3A5J,3CWE,3D9C,3EAX,
3EB1,3EU0,3I7Z,3I80,3SME,4BJO,4I8N,4QBW,4Y14,5K9V,5K9W,5KA0,5KA1,5T19,6B90,6NTP,6W30,7KEY,7KLX,7LFO,7MN9,7MNA,8DU7,8G65,8G67,8G68,8G69,8G6A,8SKL

> <UniProt (SwissProt) Recommended Name of Target Chain>
Tyrosine-protein phosphatase non-receptor type 1

> <UniProt (SwissProt) Entry Name of Target Chain>
PTN1_HUMAN

> <UniProt (SwissProt) Primary ID of Target Chain>
P18031

> <UniProt (SwissProt) Secondary ID(s) of Target Chain>
Q5TGD8 Q9BQV9 Q9NQQ4

$$$$
Molecule
  SciTegic10242319433D

 81 85  0  0  0  0            999 V2000
   10.9846    3.9604    0.1506 C   0  0
   11.9311    2.8425    0.3813 C   0  0
   13.2430    3.0313    0.3835 C   0  0
   13.7774    4.3381    0.1687 C   0  0
   12.9780    5.3941   -0.0244 C   0  0
   11.4401    5.1991   -0.0278 C   0  0
    4.0745   -3.1001    0.1008 C   0  0
    4.0156   -4.5552    0.1832 C   0  0
    5.1445   -5.2494    0.2218 C   0  0
    6.4655   -4.5941    0.1486 C   0  0
    6.5336   -3.2705    0.0346 C   0  0
    5.2626   -2.4838    0.0537 C   0  0
    7.8080   -5.7405   -0.1474 S   0  0
    9.5994   -5.7320   -0.1091 N   0  0
    7.7369   -5.5229   -1.6375 O   0  0
    7.3113   -7.1481    0.1084 O   0  0
   10.6163   -4.8309    0.4463 C   0  0  3  0  0  0
   11.9034   -5.5767   -0.1611 C   0  0
   13.3161   -5.0383    0.0083 C   0  0
   10.4095   -3.4075   -0.0202 C   0  0
   14.4539   -5.9010   -0.3772 C   0  0
   15.7024   -5.4401   -0.3071 C   0  0
   15.9273   -4.0120    0.1384 C   0  0
   14.8864   -3.2587    0.4642 C   0  0
   13.5416   -3.7972    0.4211 C   0  0
   17.2786   -3.3539    0.0124 C   0  0  2  0  0  0
   18.4964   -3.7959    0.8277 C   0  0
   19.5428   -2.8676    0.1660 C   0  0
   19.0232   -1.7005   -0.5010 N   0  0
   17.4100   -1.5696   -0.1346 S   0  0
   20.7381   -3.1644    0.1255 O   0  0
   16.4879   -1.0577   -1.2258 O   0  0
   17.3296   -0.7096    1.1160 O   0  0
   11.0899   -2.8069   -0.9200 N   0  0
    9.4850   -2.5585    0.5480 N   0  0
    9.6562   -1.3573   -0.0890 C   0  0
   10.6275   -1.4650   -0.9909 C   0  0
    8.8835   -0.1102    0.2592 C   0  0
    2.8311   -5.2013    0.2170 F   0  0
   16.8381   -6.3509   -0.7513 C   0  0
    9.4221    1.1511   -0.4527 C   0  0
    9.0799    2.3480    0.5032 C   0  0
    9.5534    3.7034    0.1522 O   0  0
   10.3508    6.3416   -0.2186 C   0  0
   10.4470    7.7995   -0.2147 O   0  0
    9.1815    5.9415   -0.3488 O   0  0
   11.6687    8.4748    0.0208 C   0  0
   13.6119    6.5822   -0.2396 O   0  0
   11.5381    1.8405    0.5534 H   0  0
   13.9143    2.1887    0.5494 H   0  0
   14.8583    4.4783    0.1617 H   0  0
    3.1544   -2.5161    0.0777 H   0  0
    5.0959   -6.3347    0.3101 H   0  0
    7.4962   -2.7700   -0.0707 H   0  0
    5.3033   -1.3949    0.0291 H   0  0
    9.8596   -5.7736   -1.1461 H   0  0
   10.6212   -4.8816    1.5351 H   0  0
   11.9065   -6.5765    0.2729 H   0  0
   11.7332   -5.6470   -1.2355 H   0  0
   14.2704   -6.9192   -0.7203 H   0  0
   15.0435   -2.2236    0.7675 H   0  0
   12.7032   -3.1740    0.7323 H   0  0
   17.5719   -3.6685   -0.9892 H   0  0
   18.3774   -3.5921    1.8919 H   0  0
   18.7298   -4.8508    0.6832 H   0  0
   19.5811   -1.0337   -1.1247 H   0  0
    8.7827   -2.7882    1.3219 H   0  0
   10.9954   -0.6807   -1.6524 H   0  0
    7.8425   -0.2544   -0.0299 H   0  0
    8.9437    0.0464    1.3362 H   0  0
   17.7888   -5.8309   -0.6334 H   0  0
   16.6997   -6.6209   -1.7982 H   0  0
   16.8404   -7.2539   -0.1408 H   0  0
   10.4997    1.0756   -0.5983 H   0  0
    8.9329    1.2822   -1.4179 H   0  0
    7.9935    2.3982    0.5756 H   0  0
    9.4990    2.1064    1.4799 H   0  0
   11.5038    9.5513   -0.0232 H   0  0
   12.3955    8.1878   -0.7392 H   0  0
   12.0489    8.2061    1.0064 H   0  0
   14.2119    6.8147    0.5901 H   0  0
 23 24  2  0
 12  7  2  0
 24 25  1  0
 25 19  2  0
 26 27  1  0
  6  1  2  0
 10 13  1  0
  1  2  1  0
 13 14  1  0
  3  4  1  0
 27 28  1  0
 28 29  1  0
 29 30  1  0
 30 26  1  0
 26 23  1  0
 13 15  2  0
 28 31  2  0
  7  8  1  0
 30 32  2  0
 13 16  2  0
 30 33  2  0
 20 34  2  0
 17 14  1  0
 34 37  1  0
 36 35  1  0
 35 20  1  0
  8  9  2  0
 17 18  1  0
 36 37  2  0
  4  5  2  0
 36 38  1  0
 18 19  1  0
  8 39  1  0
  9 10  1  0
 22 40  1  0
 17 20  1  0
 38 41  1  0
  2  3  2  0
 41 42  1  0
 19 21  1  0
 42 43  1  0
 43  1  1  0
 10 11  2  0
 21 22  2  0
  5  6  1  0
 44 45  1  0
 44 46  2  0
  6 44  1  0
 22 23  1  0
 45 47  1  0
 11 12  1  0
  5 48  1  0
  2 49  1  0
  3 50  1  0
  4 51  1  0
  7 52  1  0
  9 53  1  0
 11 54  1  0
 12 55  1  0
 14 56  1  0
 17 57  1  0
 18 58  1  0
 18 59  1  0
 21 60  1  0
 24 61  1  0
 25 62  1  0
 26 63  1  0
 27 64  1  0
 27 65  1  0
 29 66  1  0
 35 67  1  0
 37 68  1  0
 38 69  1  0
 38 70  1  0
 40 71  1  0
 40 72  1  0
 40 73  1  0
 41 74  1  0
 41 75  1  0
 42 76  1  0
 42 77  1  0
 47 78  1  0
 47 79  1  0
 47 80  1  0
 48 81  1  0
M  END
> <Name>
Molecule

> <Clean Energy>
153.551

> <From>
www.bindingDB.org

> <BindingDB Reactant_set_id>
50406877

> <Ligand InChI>
InChI=1S/C32H33FN4O9S2/c1-19-14-20(11-12-24(19)28-17-29(39)37-48(28,43)44)15-25(36-47(41,42)23-8-3-6-21(33)16-23)31-34-18-22(35-31)7-5-13-46-27-10-4-9-26(38)30(27)32(40)45-2/h3-4,6,8-12,14,16,18,25,28
,36,38H,5,7,13,15,17H2,1-2H3,(H,34,35)(H,37,39)

> <Ligand InChI Key>
DAZSGUOJKRVDFC-UHFFFAOYSA-N

> <BindingDB MonomerID>
50228010

> <BindingDB Ligand Name>
2-[3-(2-{1-(3-fluoro-benzenesulfonylamino)-2-[3-methyl-4-(1,1,3-trioxo-1lambda6-isothiazolidin-5-yl)-phenyl]-ethyl}-3H-imidazol-4-yl)-propoxy]-6-hydroxy-benzoic acid methyl ester::CHEMBL253501

> <Target Name>
Tyrosine-protein phosphatase non-receptor type 1

> <Target Source Organism According to Curator or DataSource>
Homo sapiens

> <IC50 (nM)>
350

> <Curation/DataSource>
ChEMBL

> <Article DOI>
10.1016/j.bmcl.2007.11.012

> <BindingDB Entry DOI>
10.7270/Q2BV7GCQ

> <PMID>
18037290

> <Authors>
Douty, B; Wayland, B; Ala, PJ; Bower, MJ; Pruitt, J; Bostrom, L; Wei, M; Klabe, R; Gonneville, L; Wynn, R; Burn, TC; Liu, PC; Combs, AP; Yue, EW

> <Institution>
Incyte Corporation

> <Link to Ligand in BindingDB>
http://www.bindingdb.org/bind/chemsearch/marvin/MolStructure.jsp?monomerid=50228010

> <Link to Ligand-Target Pair in BindingDB>
http://www.bindingdb.org/jsp/dbsearch/PrimarySearch_ki.jsp?energyterm=kJ/mole&tag=pol&polymerid=2622&target=Tyrosine-protein+phosphatase+non-receptor+type+1&column=ki&startPg=0&Increment=50&submit=Sea
rch
http://www.bindingdb.org/jsp/dbsearch/PrimarySearch_ki.jsp?energyterm=kJ/mole&tag=r21&monomerid=50228010&enzyme=Tyrosine-protein+phosphatase+non-receptor+type+1&column=ki&startPg=0&Increment=50&submit
=Search

> <PubChem CID of Ligand>
44446165

> <PubChem SID of Ligand>
104097697

> <ChEMBL ID of Ligand>
CHEMBL253501

> <ZINC ID of Ligand>
ZINC28978125

> <Number of Protein Chains in Target (bigger than 1 implies a multichain complex)>
1

> <BindingDB Target Chain Sequence>
MEMEKEFEQIDKSGSWAAIYQDIRHEASDFPCRVAKLPKNKNRNRYRDVSPFDHSRIKLHQEDNDYINASLIKMEEAQRSYILTQGPLPNTCGHFWEMVWEQKSRGVVMLNRVMEKGSLKCAQYWPQKEEKEMIFEDTNLKLTLISEDIKSYYTVRQLELENLTTQETREILHFHYTTWPDFGVPESPASFLNFLFKVRE
SGSLSPEHGPVVVHCSAGIGRSGTFCLADTCLLLMDKRKDPSSVDIKKVLLEMRKFRMGLIQTADQLRFSYLAVIEGAKFIMGDSSVQDQWKELSHEDLEPPPEHIPPPPRPPKRILEPHNGKCREFFPNHQWVKEETQEDKDCPIKEEKGSPLNAAPYGIESMSQDTEVRSRVVGGSLRGAQAASPAKGEPSLPEKDED
HALSYWKPFLVNMCVATVLTAGAYLCYRFLFNSNT

> <PDB ID(s) of Target Chain>
1BZJ,1G7G,1GFY,1JF7,1KAK,1KAV,1LQF,1NL9,1NNY,1NO6,1NZ7,1OEM,1OEO,1OES,1OET,1OEU,1OEV,1ONY,1ONZ,1PH0,1PXH,1PYN,1Q1M,1Q6J,1Q6M,1Q6N,1Q6P,1Q6S,1Q6T,1QXK,1SUG,1T48,1T49,1T4J,1WAX,1XBO,2AZR,2B07,2BGD,2BGE,
2CM2,2CM3,2CM7,2CM8,2CMA,2CMB,2CMC,2CNE,2CNF,2CNG,2CNH,2CNI,2F6T,2F6V,2F6W,2F6Y,2F6Z,2F70,2F71,2FJN,2H4G,2H4K,2HB1,2HNP,2HNQ,2QBP,2QBQ,2QBR,2QBS,2VEU,2VEV,2VEW,2VEX,2VEY,2ZMM,2ZN7,3A5J,3CWE,3D9C,3EAX,
3EB1,3EU0,3I7Z,3I80,3SME,4BJO,4I8N,4QBW,4Y14,5K9V,5K9W,5KA0,5KA1,5T19,6B90,6NTP,6W30,7KEY,7KLX,7LFO,7MN9,7MNA,8DU7,8G65,8G67,8G68,8G69,8G6A,8SKL

> <UniProt (SwissProt) Recommended Name of Target Chain>
Tyrosine-protein phosphatase non-receptor type 1

> <UniProt (SwissProt) Entry Name of Target Chain>
PTN1_HUMAN

> <UniProt (SwissProt) Primary ID of Target Chain>
P18031

> <UniProt (SwissProt) Secondary ID(s) of Target Chain>
Q5TGD8 Q9BQV9 Q9NQQ4

$$$$
Molecule
  SciTegic10242319433D

 48 50  0  0  0  0            999 V2000
   12.3358   -9.1363    0.0722 C   0  0
   12.3039  -10.4518   -0.1417 C   0  0
   13.5734  -11.1975   -0.1914 C   0  0
   13.6129   -8.4399    0.2483 C   0  0
   14.7524   -9.1177    0.1952 C   0  0
   14.7407  -10.5616   -0.0242 C   0  0
   16.0335  -11.3486   -0.0603 C   0  0
   17.1852  -10.5894    0.4112 O   0  0
   17.2040   -9.2813   -0.1566 C   0  0  1  0  0  0
   16.0528   -8.4077    0.3758 C   0  0
   18.5138   -8.6029    0.1250 C   0  0
   19.5457   -9.2738    0.2383 O   0  0
   18.5664   -7.2186    0.2576 O   0  0
   11.0657  -11.1700   -0.3194 N   0  0
    9.8362  -10.6379   -0.1481 C   0  0
    8.6058  -11.4891   -0.3721 C   0  0
    9.6768   -9.4646    0.2029 O   0  0
    7.3747  -10.6605    0.0659 C   0  0
    6.0398  -11.4006   -0.1935 C   0  0  2  0  0  0
    4.8312  -10.5412    0.3090 C   0  0
    3.4278  -11.7076    0.4886 S   0  0
    4.1880  -13.2731    0.0472 C   0  0
    5.8579  -12.9924    0.6396 S   0  0
    4.2349  -13.3897   -1.4892 C   0  0
    3.4766  -14.4925    0.6635 C   0  0
   11.4033   -8.5737    0.1165 H   0  0
   13.5629  -12.2735   -0.3653 H   0  0
   13.6269   -7.3640    0.4229 H   0  0
   15.9191  -12.2304    0.5703 H   0  0
   16.2210  -11.6584   -1.0884 H   0  0
   17.0919   -9.3750   -1.2368 H   0  0
   16.0299   -7.4662   -0.1731 H   0  0
   16.2113   -8.2074    1.4354 H   0  0
   18.9259   -6.9714    1.2127 H   0  0
   11.1255  -12.1987   -0.6076 H   0  0
    8.5216  -11.7494   -1.4272 H   0  0
    8.6711  -12.3998    0.2233 H   0  0
    7.4563  -10.4504    1.1324 H   0  0
    7.3685   -9.7231   -0.4902 H   0  0
    5.9323  -11.5564   -1.2670 H   0  0
    5.0665  -10.0803    1.2683 H   0  0
    4.5892   -9.7656   -0.4177 H   0  0
    4.6951  -14.3375   -1.7683 H   0  0
    4.8213  -12.5672   -1.8988 H   0  0
    3.2215  -13.3469   -1.8884 H   0  0
    3.9872  -15.4052    0.3565 H   0  0
    2.4425  -14.5222    0.3202 H   0  0
    3.4960  -14.4140    1.7506 H   0  0
 11 12  2  0
  2  3  1  0
 11 13  1  0
  3  6  2  0
  2 14  1  0
  1  2  2  0
 14 15  1  0
  5  4  2  0
 15 16  1  0
  4  1  1  0
 15 17  2  0
  5 10  1  0
 16 18  1  0
  6  7  1  0
 18 19  1  0
 19 20  1  0
  7  8  1  0
  9  8  1  0
  9 10  1  0
  5  6  1  0
 20 21  1  0
 21 22  1  0
 22 23  1  0
 23 19  1  0
  9 11  1  0
 22 24  1  0
 22 25  1  0
  1 26  1  0
  3 27  1  0
  4 28  1  0
  7 29  1  0
  7 30  1  0
  9 31  1  0
 10 32  1  0
 10 33  1  0
 13 34  1  0
 14 35  1  0
 16 36  1  0
 16 37  1  0
 18 38  1  0
 18 39  1  0
 19 40  1  0
 20 41  1  0
 20 42  1  0
 24 43  1  0
 24 44  1  0
 24 45  1  0
 25 46  1  0
 25 47  1  0
 25 48  1  0
M  END
> <Name>
Molecule

> <Clean Energy>
36.9467

> <From>
www.bindingDB.org

> <BindingDB Reactant_set_id>
50513455

> <Ligand InChI>
InChI=1S/C18H23NO4S2/c1-18(2)24-10-14(25-18)5-6-16(20)19-13-4-3-11-8-15(17(21)22)23-9-12(11)7-13/h3-4,7,14-15H,5-6,8-10H2,1-2H3,(H,19,20)(H,21,22)/t14?,15-/m0/s1

> <Ligand InChI Key>
HEZDUVOOOSBRGR-LOACHALJSA-N

> <BindingDB MonomerID>
50296374

> <BindingDB Ligand Name>
(3S)-7-[2-(2,2-Dimethyl-1,3-dithiolan-4-yl)ethylcarboxamido]-isochroman-3-carboxylic acid::CHEMBL549372

> <Target Name>
Tyrosine-protein phosphatase non-receptor type 1

> <Target Source Organism According to Curator or DataSource>
Homo sapiens

> <IC50 (nM)>
353.7

> <Curation/DataSource>
ChEMBL

> <Article DOI>
10.1016/j.ejmech.2009.03.009

> <BindingDB Entry DOI>
10.7270/Q2FJ2GTG

> <PMID>
19349096

> <Authors>
Lakshminarayana, N; Rajendra Prasad, Y; Gharat, L; Thomas, A; Ravikumar, P; Narayanan, S; Srinivasan, CV; Gopalan, B

> <Institution>
Glenmark Research Center

> <Link to Ligand in BindingDB>
http://www.bindingdb.org/bind/chemsearch/marvin/MolStructure.jsp?monomerid=50296374

> <Link to Ligand-Target Pair in BindingDB>
http://www.bindingdb.org/jsp/dbsearch/PrimarySearch_ki.jsp?energyterm=kJ/mole&tag=pol&polymerid=2622&target=Tyrosine-protein+phosphatase+non-receptor+type+1&column=ki&startPg=0&Increment=50&submit=Sea
rch
http://www.bindingdb.org/jsp/dbsearch/PrimarySearch_ki.jsp?energyterm=kJ/mole&tag=r21&monomerid=50296374&enzyme=Tyrosine-protein+phosphatase+non-receptor+type+1&column=ki&startPg=0&Increment=50&submit
=Search

> <PubChem CID of Ligand>
44139780

> <PubChem SID of Ligand>
104137905

> <ChEMBL ID of Ligand>
CHEMBL549372

> <ZINC ID of Ligand>
ZINC43012486

> <Number of Protein Chains in Target (bigger than 1 implies a multichain complex)>
1

> <BindingDB Target Chain Sequence>
MEMEKEFEQIDKSGSWAAIYQDIRHEASDFPCRVAKLPKNKNRNRYRDVSPFDHSRIKLHQEDNDYINASLIKMEEAQRSYILTQGPLPNTCGHFWEMVWEQKSRGVVMLNRVMEKGSLKCAQYWPQKEEKEMIFEDTNLKLTLISEDIKSYYTVRQLELENLTTQETREILHFHYTTWPDFGVPESPASFLNFLFKVRE
SGSLSPEHGPVVVHCSAGIGRSGTFCLADTCLLLMDKRKDPSSVDIKKVLLEMRKFRMGLIQTADQLRFSYLAVIEGAKFIMGDSSVQDQWKELSHEDLEPPPEHIPPPPRPPKRILEPHNGKCREFFPNHQWVKEETQEDKDCPIKEEKGSPLNAAPYGIESMSQDTEVRSRVVGGSLRGAQAASPAKGEPSLPEKDED
HALSYWKPFLVNMCVATVLTAGAYLCYRFLFNSNT

> <PDB ID(s) of Target Chain>
1BZJ,1G7G,1GFY,1JF7,1KAK,1KAV,1LQF,1NL9,1NNY,1NO6,1NZ7,1OEM,1OEO,1OES,1OET,1OEU,1OEV,1ONY,1ONZ,1PH0,1PXH,1PYN,1Q1M,1Q6J,1Q6M,1Q6N,1Q6P,1Q6S,1Q6T,1QXK,1SUG,1T48,1T49,1T4J,1WAX,1XBO,2AZR,2B07,2BGD,2BGE,
2CM2,2CM3,2CM7,2CM8,2CMA,2CMB,2CMC,2CNE,2CNF,2CNG,2CNH,2CNI,2F6T,2F6V,2F6W,2F6Y,2F6Z,2F70,2F71,2FJN,2H4G,2H4K,2HB1,2HNP,2HNQ,2QBP,2QBQ,2QBR,2QBS,2VEU,2VEV,2VEW,2VEX,2VEY,2ZMM,2ZN7,3A5J,3CWE,3D9C,3EAX,
3EB1,3EU0,3I7Z,3I80,3SME,4BJO,4I8N,4QBW,4Y14,5K9V,5K9W,5KA0,5KA1,5T19,6B90,6NTP,6W30,7KEY,7KLX,7LFO,7MN9,7MNA,8DU7,8G65,8G67,8G68,8G69,8G6A,8SKL

> <UniProt (SwissProt) Recommended Name of Target Chain>
Tyrosine-protein phosphatase non-receptor type 1

> <UniProt (SwissProt) Entry Name of Target Chain>
PTN1_HUMAN

> <UniProt (SwissProt) Primary ID of Target Chain>
P18031

> <UniProt (SwissProt) Secondary ID(s) of Target Chain>
Q5TGD8 Q9BQV9 Q9NQQ4

$$$$
Molecule
  SciTegic10242319433D

 53 57  0  0  0  0            999 V2000
    9.7747   -3.7659    0.1541 S   0  0
   -0.7257   -1.7233   -0.0347 C   0  0
   13.0606   -6.8926    0.0643 C   0  0
   -1.4601   -2.8753   -0.0096 C   0  0
   11.2546   -4.7657    0.2149 C   0  0
   13.5785   -5.4777   -0.0106 C   0  0
   -1.6786   -0.6378   -0.0214 C   0  0
   -2.8362   -2.5427    0.0141 O   0  0
   13.8996   -8.0887   -0.0616 C   0  0
   12.7100   -4.4339    0.0597 C   0  0
    9.5222   -2.0434    0.3080 O   0  0
   11.7749   -7.1099    0.2213 C   0  0
    9.2910   -4.0730   -1.2489 O   0  0
    8.9300   -4.4990    1.1792 O   0  0
    0.7769   -1.7102   -0.0589 C   0  0
   -2.9510   -1.1787    0.0078 C   0  0
   10.8817   -6.0342    0.2854 C   0  0
    3.6261   -1.6867   -0.0682 C   0  0
    5.1380   -1.7074   -0.0197 C   0  0
   13.3495   -9.1998   -0.0527 O   0  0
    1.4641   -0.5450   -0.0952 C   0  0
    1.5341   -2.9641   -0.0340 C   0  0
    2.8695   -2.9655   -0.0412 C   0  0
    2.9473   -0.5438   -0.0946 C   0  0
    5.8101   -2.9767   -0.0277 C   0  0
    5.8794   -0.5866    0.0633 C   0  0
    8.0146   -1.8550    0.1747 C   0  0
   14.9499   -5.2608   -0.1608 O   0  0
   15.2634   -8.0005   -0.2625 O   0  0
    7.1330   -3.0432    0.0532 C   0  0
    7.4054   -0.6603    0.1712 C   0  0
   -1.4733    0.6956   -0.0300 C   0  0
   -4.0540   -0.4568    0.0274 C   0  0
   -2.6744    1.5586   -0.0091 C   0  0
   -3.9001    1.0172    0.0174 C   0  0
   -1.0527   -3.8863   -0.0081 H   0  0
   13.0556   -3.4016    0.0057 H   0  0
   11.4023   -8.1311    0.3020 H   0  0
    9.8200   -6.2529    0.3996 H   0  0
    0.9230    0.4007   -0.1251 H   0  0
    0.9980   -3.9128   -0.0091 H   0  0
    3.4090   -3.9124   -0.0272 H   0  0
    3.4861    0.4035   -0.1161 H   0  0
    5.2275   -3.8950   -0.1010 H   0  0
    5.3871    0.3859    0.0537 H   0  0
   15.1261   -4.7355   -1.0527 H   0  0
   15.4532   -7.4828   -1.1561 H   0  0
    7.5997   -4.0280    0.0291 H   0  0
    7.9937    0.2544    0.2448 H   0  0
   -0.4685    1.1176   -0.0513 H   0  0
   -5.0382   -0.9247    0.0500 H   0  0
   -2.5619    2.6428   -0.0153 H   0  0
   -4.7811    1.6590    0.0315 H   0  0
  2 15  1  0
  3 12  2  0
  4  2  2  0
  5  1  1  0
  6 10  2  0
  7  2  1  0
  8  4  1  0
  9  3  1  0
 10  5  1  0
 11  1  1  0
 12 17  1  0
 13  1  2  0
 14  1  2  0
 15 21  2  0
 16  7  1  0
 17  5  2  0
 18 19  1  0
 19 26  2  0
 20  9  2  0
 21 24  1  0
 22 23  2  0
 23 18  1  0
 24 18  2  0
 25 30  2  0
 26 31  1  0
 27 11  1  0
 28  6  1  0
 29  9  1  0
 30 27  1  0
 31 27  2  0
 32  7  2  0
 33 16  2  0
 34 32  1  0
 35 34  2  0
  6  3  1  0
 19 25  1  0
 15 22  1  0
 16  8  1  0
 35 33  1  0
  4 36  1  0
 10 37  1  0
 12 38  1  0
 17 39  1  0
 21 40  1  0
 22 41  1  0
 23 42  1  0
 24 43  1  0
 25 44  1  0
 26 45  1  0
 28 46  1  0
 29 47  1  0
 30 48  1  0
 31 49  1  0
 32 50  1  0
 33 51  1  0
 34 52  1  0
 35 53  1  0
M  END
> <Name>
Molecule

> <Clean Energy>
56.2366

> <From>
www.bindingDB.org

> <BindingDB Reactant_set_id>
50154625

> <Ligand InChI>
InChI=1S/C27H18O7S/c28-25-15-21(13-14-23(25)27(29)30)35(31,32)34-20-11-9-18(10-12-20)17-5-7-19(8-6-17)24-16-33-26-4-2-1-3-22(24)26/h1-16,28H,(H,29,30)

> <Ligand InChI Key>
WOTODPFQZMESJR-UHFFFAOYSA-N

> <BindingDB MonomerID>
50086943

> <BindingDB Ligand Name>
4-(4'-Benzofuran-3-yl-biphenyl-4-yloxysulfonyl)-2-hydroxy-benzoic acid::CHEMBL24900

> <Target Name>
Tyrosine-protein phosphatase non-receptor type 1

> <Target Source Organism According to Curator or DataSource>
Homo sapiens

> <IC50 (nM)>
354

> <Curation/DataSource>
ChEMBL

> <Article DOI>
10.1021/jm990560c

> <BindingDB Entry DOI>
10.7270/Q2W958FT

> <PMID>
10753467

> <Authors>
Malamas, MS; Sredy, J; Moxham, C; Katz, A; Xu, W; McDevitt, R; Adebayo, FO; Sawicki, DR; Seestaller, L; Sullivan, D; Taylor, JR

> <Institution>
Wyeth-Ayerst Research

> <Link to Ligand in BindingDB>
http://www.bindingdb.org/bind/chemsearch/marvin/MolStructure.jsp?monomerid=50086943

> <Link to Ligand-Target Pair in BindingDB>
http://www.bindingdb.org/jsp/dbsearch/PrimarySearch_ki.jsp?energyterm=kJ/mole&tag=pol&polymerid=2622&target=Tyrosine-protein+phosphatase+non-receptor+type+1&column=ki&startPg=0&Increment=50&submit=Sea
rch
http://www.bindingdb.org/jsp/dbsearch/PrimarySearch_ki.jsp?energyterm=kJ/mole&tag=r21&monomerid=50086943&enzyme=Tyrosine-protein+phosphatase+non-receptor+type+1&column=ki&startPg=0&Increment=50&submit
=Search

> <PubChem CID of Ligand>
10719718

> <PubChem SID of Ligand>
103986054

> <ChEMBL ID of Ligand>
CHEMBL24900

> <ZINC ID of Ligand>
ZINC02008094

> <Number of Protein Chains in Target (bigger than 1 implies a multichain complex)>
1

> <BindingDB Target Chain Sequence>
MEMEKEFEQIDKSGSWAAIYQDIRHEASDFPCRVAKLPKNKNRNRYRDVSPFDHSRIKLHQEDNDYINASLIKMEEAQRSYILTQGPLPNTCGHFWEMVWEQKSRGVVMLNRVMEKGSLKCAQYWPQKEEKEMIFEDTNLKLTLISEDIKSYYTVRQLELENLTTQETREILHFHYTTWPDFGVPESPASFLNFLFKVRE
SGSLSPEHGPVVVHCSAGIGRSGTFCLADTCLLLMDKRKDPSSVDIKKVLLEMRKFRMGLIQTADQLRFSYLAVIEGAKFIMGDSSVQDQWKELSHEDLEPPPEHIPPPPRPPKRILEPHNGKCREFFPNHQWVKEETQEDKDCPIKEEKGSPLNAAPYGIESMSQDTEVRSRVVGGSLRGAQAASPAKGEPSLPEKDED
HALSYWKPFLVNMCVATVLTAGAYLCYRFLFNSNT

> <PDB ID(s) of Target Chain>
1BZJ,1G7G,1GFY,1JF7,1KAK,1KAV,1LQF,1NL9,1NNY,1NO6,1NZ7,1OEM,1OEO,1OES,1OET,1OEU,1OEV,1ONY,1ONZ,1PH0,1PXH,1PYN,1Q1M,1Q6J,1Q6M,1Q6N,1Q6P,1Q6S,1Q6T,1QXK,1SUG,1T48,1T49,1T4J,1WAX,1XBO,2AZR,2B07,2BGD,2BGE,
2CM2,2CM3,2CM7,2CM8,2CMA,2CMB,2CMC,2CNE,2CNF,2CNG,2CNH,2CNI,2F6T,2F6V,2F6W,2F6Y,2F6Z,2F70,2F71,2FJN,2H4G,2H4K,2HB1,2HNP,2HNQ,2QBP,2QBQ,2QBR,2QBS,2VEU,2VEV,2VEW,2VEX,2VEY,2ZMM,2ZN7,3A5J,3CWE,3D9C,3EAX,
3EB1,3EU0,3I7Z,3I80,3SME,4BJO,4I8N,4QBW,4Y14,5K9V,5K9W,5KA0,5KA1,5T19,6B90,6NTP,6W30,7KEY,7KLX,7LFO,7MN9,7MNA,8DU7,8G65,8G67,8G68,8G69,8G6A,8SKL

> <UniProt (SwissProt) Recommended Name of Target Chain>
Tyrosine-protein phosphatase non-receptor type 1

> <UniProt (SwissProt) Entry Name of Target Chain>
PTN1_HUMAN

> <UniProt (SwissProt) Primary ID of Target Chain>
P18031

> <UniProt (SwissProt) Secondary ID(s) of Target Chain>
Q5TGD8 Q9BQV9 Q9NQQ4

$$$$
Molecule
  SciTegic10242319433D

 80 83  0  0  0  0            999 V2000
    4.5813    1.8397    1.3330 O   0  0
    4.0077    1.0941    0.1406 S   0  0
    4.9804    1.2014   -1.0175 O   0  0
   -4.7190   -3.0853    0.8335 O   0  0
   -3.8323   -3.8904   -0.0988 S   0  0
   -4.3370   -3.6911   -1.5149 O   0  0
    1.2392   -0.0882   -1.0374 C   0  0
    1.2692    1.0502   -0.3481 C   0  0
    0.0771    1.4537    0.4048 C   0  0
   -0.9819    0.6429    0.4760 C   0  0
   -0.9865   -0.6559   -0.2230 C   0  0
    0.0607   -0.9540   -0.9925 C   0  0
   -2.2205   -1.6235   -0.0030 C   0  0
   -2.1864   -3.1894   -0.0057 N   0  0
   -0.9291   -4.0732    0.0957 C   0  0
   -4.0167   -5.6720    0.3437 C   0  0
   -5.4166   -6.2195    0.2116 C   0  0
   -5.6034   -7.5335    0.3403 C   0  0
   -6.9434   -8.1074    0.2151 C   0  0
   -7.9841   -7.3134   -0.0265 C   0  0
   -7.7834   -5.8664   -0.1682 C   0  0
   -6.5611   -5.3449   -0.0569 C   0  0
   -0.9835   -5.4026   -0.0244 C   0  0
    0.2257   -6.2513    0.0159 C   0  0
    1.4230   -5.6841    0.1459 C   0  0
    1.4957   -4.2527    0.2985 C   0  0
    0.3947   -3.5184    0.3000 C   0  0
    2.6095   -6.4374    0.1398 O   0  0
    3.7254   -5.5281    0.2253 C   0  0
    5.0342   -6.2371    0.1214 C   0  0
    6.1610   -5.5266    0.1018 C   0  0
    7.4534   -6.2030    0.0038 C   0  0
    7.5022   -7.5320   -0.0639 C   0  0
    6.2605   -8.3138   -0.0438 C   0  0
    5.0835   -7.6956    0.0430 C   0  0
    2.4583    1.8478   -0.2611 N   0  0
    2.2961    3.2910   -0.0791 C   0  0
    3.8935   -0.6528    0.6557 C   0  0
    3.5893    4.0954   -0.2204 C   0  0
    3.5912    5.4517    0.0901 O   0  0
    4.6382    3.5682   -0.6043 O   0  0
    4.9078    5.9861   -0.0974 C   0  0
    0.0885   -7.7053   -0.1002 C   0  0
    1.0888   -8.4319   -0.0960 O   0  0
   -1.1837   -8.2706   -0.1689 O   0  0
   -1.0789   -9.6959   -0.2264 C   0  0
    2.0999   -0.3777   -1.6403 H   0  0
    0.0553    2.4200    0.9088 H   0  0
   -1.8531    0.9447    1.0575 H   0  0
    0.0385   -1.8593   -1.5991 H   0  0
   -2.6247   -1.3503    0.9718 H   0  0
   -2.9344   -1.3540   -0.7814 H   0  0
   -3.3638   -6.2519   -0.3088 H   0  0
   -3.7008   -5.7977    1.3793 H   0  0
   -4.7522   -8.1844    0.5400 H   0  0
   -7.0892   -9.1825    0.3194 H   0  0
   -8.9841   -7.7372   -0.1189 H   0  0
   -8.6358   -5.2161   -0.3649 H   0  0
   -6.4137   -4.2704   -0.1655 H   0  0
   -1.9550   -5.8787   -0.1569 H   0  0
    2.4665   -3.7706    0.4137 H   0  0
    0.4876   -2.4446    0.4627 H   0  0
    3.6521   -4.8042   -0.5863 H   0  0
    3.6824   -5.0076    1.1820 H   0  0
    6.1193   -4.4389    0.1588 H   0  0
    8.3748   -5.6209   -0.0139 H   0  0
    8.4645   -8.0392   -0.1342 H   0  0
    6.3012   -9.4016   -0.0999 H   0  0
    4.1607   -8.2755    0.0554 H   0  0
    1.5877    3.6511   -0.8251 H   0  0
    1.8937    3.4654    0.9188 H   0  0
    3.4857   -1.2473   -0.1618 H   0  0
    3.2401   -0.7340    1.5244 H   0  0
    4.8864   -1.0220    0.9127 H   0  0
    4.9073    7.0484    0.1463 H   0  0
    5.2103    5.8522   -1.1360 H   0  0
    5.6083    5.4646    0.5549 H   0  0
   -2.0763  -10.1321   -0.2800 H   0  0
   -0.5714  -10.0597    0.6671 H   0  0
   -0.5092   -9.9835   -1.1100 H   0  0
  2  1  2  0
  3  2  2  0
  5  4  2  0
  6  5  2  0
  7  8  2  0
  8  9  1  0
  9 10  2  0
 10 11  1  0
 11 12  2  0
 12  7  1  0
 11 13  1  0
 13 14  1  0
 14 15  1  0
 14  5  1  0
  5 16  1  0
 16 17  1  0
 17 18  2  0
 18 19  1  0
 19 20  2  0
 20 21  1  0
 21 22  2  0
 22 17  1  0
 15 23  2  0
 23 24  1  0
 24 25  2  0
 25 26  1  0
 26 27  2  0
 27 15  1  0
 25 28  1  0
 28 29  1  0
 29 30  1  0
 30 31  2  0
 31 32  1  0
 32 33  2  0
 33 34  1  0
 34 35  2  0
 35 30  1  0
  8 36  1  0
 36 37  1  0
 36  2  1  0
  2 38  1  0
 37 39  1  0
 39 40  1  0
 39 41  2  0
 40 42  1  0
 24 43  1  0
 43 44  2  0
 43 45  1  0
 45 46  1  0
  7 47  1  0
  9 48  1  0
 10 49  1  0
 12 50  1  0
 13 51  1  0
 13 52  1  0
 16 53  1  0
 16 54  1  0
 18 55  1  0
 19 56  1  0
 20 57  1  0
 21 58  1  0
 22 59  1  0
 23 60  1  0
 26 61  1  0
 27 62  1  0
 29 63  1  0
 29 64  1  0
 31 65  1  0
 32 66  1  0
 33 67  1  0
 34 68  1  0
 35 69  1  0
 37 70  1  0
 37 71  1  0
 38 72  1  0
 38 73  1  0
 38 74  1  0
 42 75  1  0
 42 76  1  0
 42 77  1  0
 46 78  1  0
 46 79  1  0
 46 80  1  0
M  END
> <Name>
Molecule

> <Clean Energy>
42.259

> <From>
www.bindingDB.org

> <BindingDB Reactant_set_id>
50505834

> <Ligand InChI>
InChI=1S/C33H34N2O9S2/c1-42-32(36)22-34(45(3,38)39)28-16-14-25(15-17-28)21-35(46(40,41)24-27-12-8-5-9-13-27)29-18-19-31(30(20-29)33(37)43-2)44-23-26-10-6-4-7-11-26/h4-20H,21-24H2,1-3H3

> <Ligand InChI Key>
DZTSPUIXGGCGGS-UHFFFAOYSA-N

> <BindingDB MonomerID>
50184993

> <BindingDB Ligand Name>
CHEMBL3824236

> <Target Name>
Tyrosine-protein phosphatase non-receptor type 1

> <Target Source Organism According to Curator or DataSource>
Homo sapiens

> <IC50 (nM)>
355

> <Curation/DataSource>
ChEMBL

> <Article DOI>
10.1016/j.ejmech.2016.04.014

> <BindingDB Entry DOI>
10.7270/Q2JS9SCC

> <PMID>
27123900

> <Authors>
Liu, P; Du, Y; Song, L; Shen, J; Li, Q

> <Institution>
Qilu University of Technology

> <Link to Ligand in BindingDB>
http://www.bindingdb.org/bind/chemsearch/marvin/MolStructure.jsp?monomerid=50184993

> <Link to Ligand-Target Pair in BindingDB>
http://www.bindingdb.org/jsp/dbsearch/PrimarySearch_ki.jsp?energyterm=kJ/mole&tag=pol&polymerid=2622&target=Tyrosine-protein+phosphatase+non-receptor+type+1&column=ki&startPg=0&Increment=50&submit=Sea
rch
http://www.bindingdb.org/jsp/dbsearch/PrimarySearch_ki.jsp?energyterm=kJ/mole&tag=r21&monomerid=50184993&enzyme=Tyrosine-protein+phosphatase+non-receptor+type+1&column=ki&startPg=0&Increment=50&submit
=Search

> <PubChem CID of Ligand>
127052247

> <PubChem SID of Ligand>
346550476

> <ChEMBL ID of Ligand>
CHEMBL3824236

> <Number of Protein Chains in Target (bigger than 1 implies a multichain complex)>
1

> <BindingDB Target Chain Sequence>
MEMEKEFEQIDKSGSWAAIYQDIRHEASDFPCRVAKLPKNKNRNRYRDVSPFDHSRIKLHQEDNDYINASLIKMEEAQRSYILTQGPLPNTCGHFWEMVWEQKSRGVVMLNRVMEKGSLKCAQYWPQKEEKEMIFEDTNLKLTLISEDIKSYYTVRQLELENLTTQETREILHFHYTTWPDFGVPESPASFLNFLFKVRE
SGSLSPEHGPVVVHCSAGIGRSGTFCLADTCLLLMDKRKDPSSVDIKKVLLEMRKFRMGLIQTADQLRFSYLAVIEGAKFIMGDSSVQDQWKELSHEDLEPPPEHIPPPPRPPKRILEPHNGKCREFFPNHQWVKEETQEDKDCPIKEEKGSPLNAAPYGIESMSQDTEVRSRVVGGSLRGAQAASPAKGEPSLPEKDED
HALSYWKPFLVNMCVATVLTAGAYLCYRFLFNSNT

> <PDB ID(s) of Target Chain>
1BZJ,1G7G,1GFY,1JF7,1KAK,1KAV,1LQF,1NL9,1NNY,1NO6,1NZ7,1OEM,1OEO,1OES,1OET,1OEU,1OEV,1ONY,1ONZ,1PH0,1PXH,1PYN,1Q1M,1Q6J,1Q6M,1Q6N,1Q6P,1Q6S,1Q6T,1QXK,1SUG,1T48,1T49,1T4J,1WAX,1XBO,2AZR,2B07,2BGD,2BGE,
2CM2,2CM3,2CM7,2CM8,2CMA,2CMB,2CMC,2CNE,2CNF,2CNG,2CNH,2CNI,2F6T,2F6V,2F6W,2F6Y,2F6Z,2F70,2F71,2FJN,2H4G,2H4K,2HB1,2HNP,2HNQ,2QBP,2QBQ,2QBR,2QBS,2VEU,2VEV,2VEW,2VEX,2VEY,2ZMM,2ZN7,3A5J,3CWE,3D9C,3EAX,
3EB1,3EU0,3I7Z,3I80,3SME,4BJO,4I8N,4QBW,4Y14,5K9V,5K9W,5KA0,5KA1,5T19,6B90,6NTP,6W30,7KEY,7KLX,7LFO,7MN9,7MNA,8DU7,8G65,8G67,8G68,8G69,8G6A,8SKL

> <UniProt (SwissProt) Recommended Name of Target Chain>
Tyrosine-protein phosphatase non-receptor type 1

> <UniProt (SwissProt) Entry Name of Target Chain>
PTN1_HUMAN

> <UniProt (SwissProt) Primary ID of Target Chain>
P18031

> <UniProt (SwissProt) Secondary ID(s) of Target Chain>
Q5TGD8 Q9BQV9 Q9NQQ4

$$$$
Molecule
  SciTegic10242319433D

 59 60  0  0  0  0            999 V2000
    6.0047   -8.2198    0.6185 O   0  0
    5.7105   -7.0628   -0.2661 C   0  0  1  0  0  0
    4.4421   -6.2916    0.2124 C   0  0
    3.0306   -8.4636   -0.2284 C   0  0
    3.1215   -7.0504    0.1534 C   0  0
    2.0019   -6.3685    0.4105 C   0  0
    0.6899   -7.0185    0.3120 C   0  0
    0.5890   -8.2875   -0.0373 C   0  0
    1.8315   -9.0566   -0.3199 C   0  0
    6.8302   -6.0366   -0.2819 C   0  0
    7.8176   -6.1952   -1.0104 O   0  0
    6.6861   -4.8504    0.4283 O   0  0
   -0.6880   -8.9593   -0.1830 N   0  0
   -1.9023   -8.3822    0.0378 C   0  0
   -3.1558   -9.2202   -0.2007 C   0  0
   -2.0208   -7.2178    0.3986 O   0  0
   -4.4345   -8.4250    0.2006 C   0  0
   -5.7120   -9.2458   -0.1536 C   0  0
   -6.9813   -8.4857    0.3171 C   0  0
   -8.2701   -9.2303   -0.1304 C   0  0  2  0  0  0
   -9.5808   -8.5368    0.3597 C   0  0
  -10.7763   -9.4144   -0.2033 C   0  0
  -10.3732  -11.1406    0.2009 S   0  0
   -8.3805  -10.8820    0.5616 S   0  0
    7.1428   -9.0450    0.1655 C   0  0
    8.5335   -8.5677    0.6972 C   0  0
    9.6619   -9.3578    0.0050 C   0  0
   11.0279   -8.7895    0.4401 C   0  0
    5.5451   -7.4243   -1.2810 H   0  0
    4.3410   -5.4025   -0.4100 H   0  0
    4.6068   -5.9940    1.2480 H   0  0
    3.9372   -9.0314   -0.4376 H   0  0
    2.0635   -5.3184    0.6964 H   0  0
   -0.2120   -6.4466    0.5299 H   0  0
    1.7664  -10.1073   -0.6026 H   0  0
    5.8514   -4.3251    0.0678 H   0  0
   -0.6756   -9.9852   -0.4868 H   0  0
   -3.2148   -9.4829   -1.2569 H   0  0
   -3.0975  -10.1293    0.3977 H   0  0
   -4.4166   -8.2320    1.2732 H   0  0
   -4.4538   -7.4782   -0.3391 H   0  0
   -5.7588   -9.3920   -1.2327 H   0  0
   -5.6671  -10.2149    0.3433 H   0  0
   -6.9707   -8.4125    1.4046 H   0  0
   -6.9789   -7.4850   -0.1149 H   0  0
   -8.2856   -9.2964   -1.2183 H   0  0
   -9.6106   -8.5104    1.4490 H   0  0
   -9.6403   -7.5208   -0.0307 H   0  0
  -11.7137   -9.1244    0.2714 H   0  0
  -10.8611   -9.2891   -1.2827 H   0  0
    6.9798  -10.0677    0.5057 H   0  0
    7.1679   -9.0235   -0.9240 H   0  0
    8.6551   -7.5052    0.4863 H   0  0
    8.5846   -8.7333    1.7733 H   0  0
    9.5979  -10.4079    0.2900 H   0  0
    9.5585   -9.2673   -1.0763 H   0  0
   11.8265   -9.3474   -0.0487 H   0  0
   11.1318   -8.8795    1.5214 H   0  0
   11.0924   -7.7392    0.1555 H   0  0
 13 14  1  0
 14 15  1  0
  7  8  2  0
 14 16  2  0
  5  3  1  0
 15 17  1  0
  8  9  1  0
 17 18  1  0
  9  4  2  0
 18 19  1  0
  4  5  1  0
 20 19  1  0
 20 21  1  0
  2 10  1  0
  2  1  1  0
 10 11  2  0
  5  6  2  0
 21 22  1  0
 22 23  1  0
 23 24  1  0
 20 24  1  0
 10 12  1  0
  1 25  1  0
  2  3  1  0
 25 26  1  0
  8 13  1  0
 26 27  1  0
  6  7  1  0
 27 28  1  0
  2 29  1  0
  3 30  1  0
  3 31  1  0
  4 32  1  0
  6 33  1  0
  7 34  1  0
  9 35  1  0
 12 36  1  0
 13 37  1  0
 15 38  1  0
 15 39  1  0
 17 40  1  0
 17 41  1  0
 18 42  1  0
 18 43  1  0
 19 44  1  0
 19 45  1  0
 20 46  1  0
 21 47  1  0
 21 48  1  0
 22 49  1  0
 22 50  1  0
 25 51  1  0
 25 52  1  0
 26 53  1  0
 26 54  1  0
 27 55  1  0
 27 56  1  0
 28 57  1  0
 28 58  1  0
 28 59  1  0
M  END
> <Name>
Molecule

> <Clean Energy>
35.6094

> <From>
www.bindingDB.org

> <BindingDB Reactant_set_id>
50513474

> <Ligand InChI>
InChI=1S/C21H31NO4S2/c1-2-3-13-26-19(21(24)25)15-16-8-10-17(11-9-16)22-20(23)7-5-4-6-18-12-14-27-28-18/h8-11,18-19H,2-7,12-15H2,1H3,(H,22,23)(H,24,25)/t18-,19+/m1/s1

> <Ligand InChI Key>
GCZBLWJRMYVJBL-MOPGFXCFSA-N

> <BindingDB MonomerID>
50296393

> <BindingDB Ligand Name>
(2S)-2-Butoxy-3-(4-{4-[(3R)-1,2-dithiolan-3-yl]butylcarboxamido}phenyl)propanoic acid::CHEMBL557861

> <Target Name>
Tyrosine-protein phosphatase non-receptor type 1

> <Target Source Organism According to Curator or DataSource>
Homo sapiens

> <IC50 (nM)>
358.3

> <Curation/DataSource>
ChEMBL

> <Article DOI>
10.1016/j.ejmech.2009.03.009

> <BindingDB Entry DOI>
10.7270/Q2FJ2GTG

> <PMID>
19349096

> <Authors>
Lakshminarayana, N; Rajendra Prasad, Y; Gharat, L; Thomas, A; Ravikumar, P; Narayanan, S; Srinivasan, CV; Gopalan, B

> <Institution>
Glenmark Research Center

> <Link to Ligand in BindingDB>
http://www.bindingdb.org/bind/chemsearch/marvin/MolStructure.jsp?monomerid=50296393

> <Link to Ligand-Target Pair in BindingDB>
http://www.bindingdb.org/jsp/dbsearch/PrimarySearch_ki.jsp?energyterm=kJ/mole&tag=pol&polymerid=2622&target=Tyrosine-protein+phosphatase+non-receptor+type+1&column=ki&startPg=0&Increment=50&submit=Sea
rch
http://www.bindingdb.org/jsp/dbsearch/PrimarySearch_ki.jsp?energyterm=kJ/mole&tag=r21&monomerid=50296393&enzyme=Tyrosine-protein+phosphatase+non-receptor+type+1&column=ki&startPg=0&Increment=50&submit
=Search

> <PubChem CID of Ligand>
44140446

> <PubChem SID of Ligand>
104137924

> <ChEMBL ID of Ligand>
CHEMBL557861

> <KEGG ID of Ligand>
C02051

> <ZINC ID of Ligand>
ZINC43024335

> <Number of Protein Chains in Target (bigger than 1 implies a multichain complex)>
1

> <BindingDB Target Chain Sequence>
MEMEKEFEQIDKSGSWAAIYQDIRHEASDFPCRVAKLPKNKNRNRYRDVSPFDHSRIKLHQEDNDYINASLIKMEEAQRSYILTQGPLPNTCGHFWEMVWEQKSRGVVMLNRVMEKGSLKCAQYWPQKEEKEMIFEDTNLKLTLISEDIKSYYTVRQLELENLTTQETREILHFHYTTWPDFGVPESPASFLNFLFKVRE
SGSLSPEHGPVVVHCSAGIGRSGTFCLADTCLLLMDKRKDPSSVDIKKVLLEMRKFRMGLIQTADQLRFSYLAVIEGAKFIMGDSSVQDQWKELSHEDLEPPPEHIPPPPRPPKRILEPHNGKCREFFPNHQWVKEETQEDKDCPIKEEKGSPLNAAPYGIESMSQDTEVRSRVVGGSLRGAQAASPAKGEPSLPEKDED
HALSYWKPFLVNMCVATVLTAGAYLCYRFLFNSNT

> <PDB ID(s) of Target Chain>
1BZJ,1G7G,1GFY,1JF7,1KAK,1KAV,1LQF,1NL9,1NNY,1NO6,1NZ7,1OEM,1OEO,1OES,1OET,1OEU,1OEV,1ONY,1ONZ,1PH0,1PXH,1PYN,1Q1M,1Q6J,1Q6M,1Q6N,1Q6P,1Q6S,1Q6T,1QXK,1SUG,1T48,1T49,1T4J,1WAX,1XBO,2AZR,2B07,2BGD,2BGE,
2CM2,2CM3,2CM7,2CM8,2CMA,2CMB,2CMC,2CNE,2CNF,2CNG,2CNH,2CNI,2F6T,2F6V,2F6W,2F6Y,2F6Z,2F70,2F71,2FJN,2H4G,2H4K,2HB1,2HNP,2HNQ,2QBP,2QBQ,2QBR,2QBS,2VEU,2VEV,2VEW,2VEX,2VEY,2ZMM,2ZN7,3A5J,3CWE,3D9C,3EAX,
3EB1,3EU0,3I7Z,3I80,3SME,4BJO,4I8N,4QBW,4Y14,5K9V,5K9W,5KA0,5KA1,5T19,6B90,6NTP,6W30,7KEY,7KLX,7LFO,7MN9,7MNA,8DU7,8G65,8G67,8G68,8G69,8G6A,8SKL

> <UniProt (SwissProt) Recommended Name of Target Chain>
Tyrosine-protein phosphatase non-receptor type 1

> <UniProt (SwissProt) Entry Name of Target Chain>
PTN1_HUMAN

> <UniProt (SwissProt) Primary ID of Target Chain>
P18031

> <UniProt (SwissProt) Secondary ID(s) of Target Chain>
Q5TGD8 Q9BQV9 Q9NQQ4

$$$$
Molecule
  SciTegic10242319433D

 64 69  0  0  0  0            999 V2000
   29.4392   -7.9283    0.0174 C   0  0
   29.5181   -9.2631   -0.0033 C   0  0
   30.8505   -9.9293   -0.0181 C   0  0
   30.6863   -7.1434    0.0278 C   0  0
   31.8754   -7.7531    0.0149 C   0  0
   31.9681   -9.1953   -0.0097 C   0  0
   33.3186   -9.8253   -0.0330 C   0  0
   34.4278   -9.0645   -0.0286 C   0  0
   34.2953   -7.5861    0.0027 C   0  0
   33.1064   -6.9761    0.0232 C   0  0
   28.1791   -7.2423    0.0268 O   0  0
   35.8008   -9.7339   -0.0645 C   0  0
   36.9925   -9.0930   -0.0776 C   0  0
   38.3375   -9.7584   -0.1220 C   0  0
   39.4901   -8.7781   -0.1302 N   0  0
   38.9525   -7.4047   -0.1051 C   0  0
   37.2631   -7.4480   -0.0582 S   0  0
   39.7464   -6.0550   -0.1665 S   0  0
   38.4473  -10.9851   -0.1577 O   0  0
   41.0127   -9.1393   -0.1855 C   0  0  2  0  0  0
   41.3810  -10.5288    0.3936 C   0  0
   42.0153   -7.9571    0.2500 C   0  0
   43.5450   -8.0965   -0.0525 C   0  0
   44.2159   -9.1899   -0.4485 C   0  0
   45.6031   -8.8331   -0.5888 N   0  0
   44.5158   -7.0142    0.0417 C   0  0
   45.6963   -7.4773   -0.2748 C   0  0
   46.8832   -6.6389   -0.2874 C   0  0
   46.7281   -5.3492    0.0332 C   0  0
   45.3731   -4.8164    0.3911 C   0  0
   44.3028   -5.6236    0.3985 C   0  0
   40.6323  -11.6558    0.1159 O   0  0
   42.4158  -10.6725    1.0513 O   0  0
   27.0423   -8.1402    0.0110 C   0  0
   25.7282   -7.3584    0.0073 C   0  0
   25.7294   -6.0241    0.0096 C   0  0
   24.4531   -5.2830    0.0059 C   0  0
   23.2949   -5.9433    0.0003 C   0  0
   23.2921   -7.4083   -0.0025 C   0  0
   24.4447   -8.0804    0.0007 C   0  0
   21.6464   -4.9875   -0.0038 Br  0  0
   28.6082   -9.8632   -0.0095 H   0  0
   30.9145  -11.0173   -0.0357 H   0  0
   30.6384   -6.0546    0.0462 H   0  0
   33.4081  -10.9114   -0.0538 H   0  0
   35.1992   -6.9770    0.0092 H   0  0
   33.0580   -5.8874    0.0464 H   0  0
   35.8222  -10.8235   -0.0810 H   0  0
   41.2056   -9.2524   -1.2523 H   0  0
   41.6741   -7.0510   -0.2507 H   0  0
   41.9147   -7.8367    1.3286 H   0  0
   43.7857  -10.1745   -0.6317 H   0  0
   46.4049   -9.4804   -0.8771 H   0  0
   47.8609   -7.0445   -0.5476 H   0  0
   47.5906   -4.6828    0.0342 H   0  0
   45.2572   -3.7634    0.6476 H   0  0
   43.3130   -5.2507    0.6616 H   0  0
   39.6477  -11.5141    0.4521 H   0  0
   27.0905   -8.7608   -0.8837 H   0  0
   27.0770   -8.7750    0.8965 H   0  0
   26.6743   -5.4807    0.0142 H   0  0
   24.4574   -4.1930    0.0078 H   0  0
   22.3465   -7.9504   -0.0072 H   0  0
   24.4362   -9.1703   -0.0015 H   0  0
  1  2  2  0
  2  3  1  0
  3  6  2  0
  5  4  2  0
  4  1  1  0
  5  6  1  0
  6  7  1  0
  7  8  2  0
  8  9  1  0
  9 10  2  0
 10  5  1  0
  1 11  1  0
  8 12  1  0
 12 13  2  0
 13 14  1  0
 14 15  1  0
 15 16  1  0
 16 17  1  0
 17 13  1  0
 16 18  2  0
 14 19  2  0
 15 20  1  0
 20 21  1  0
 20 22  1  0
 22 23  1  0
 23 24  2  0
 24 25  1  0
 25 27  1  0
 26 23  1  0
 26 27  2  0
 27 28  1  0
 28 29  2  0
 29 30  1  0
 30 31  2  0
 31 26  1  0
 21 32  1  0
 21 33  2  0
 11 34  1  0
 34 35  1  0
 35 36  2  0
 36 37  1  0
 37 38  2  0
 38 39  1  0
 39 40  2  0
 40 35  1  0
 38 41  1  0
  2 42  1  0
  3 43  1  0
  4 44  1  0
  7 45  1  0
  9 46  1  0
 10 47  1  0
 12 48  1  0
 20 49  1  0
 22 50  1  0
 22 51  1  0
 24 52  1  0
 25 53  1  0
 28 54  1  0
 29 55  1  0
 30 56  1  0
 31 57  1  0
 32 58  1  0
 34 59  1  0
 34 60  1  0
 36 61  1  0
 37 62  1  0
 39 63  1  0
 40 64  1  0
M  END
> <Name>
Molecule

> <Clean Energy>
60.3512

> <From>
www.bindingDB.org

> <BindingDB Reactant_set_id>
51252827

> <Ligand InChI>
InChI=1S/C32H23BrN2O4S2/c33-24-10-6-19(7-11-24)18-39-25-12-9-21-13-20(5-8-22(21)15-25)14-29-30(36)35(32(40)41-29)28(31(37)38)16-23-17-34-27-4-2-1-3-26(23)27/h1-15,17,28,34H,16,18H2,(H,37,38)/b29-14-

> <Ligand InChI Key>
NZUUNLGIKOLXCV-NUJZUDFISA-N

> <BindingDB MonomerID>
50512278

> <BindingDB Ligand Name>
CHEMBL4475724

> <Target Name>
Tyrosine-protein phosphatase non-receptor type 1

> <Target Source Organism According to Curator or DataSource>
Homo sapiens

> <IC50 (nM)>
360

> <Curation/DataSource>
ChEMBL

> <Article DOI>
10.1016/j.ejmech.2019.03.059

> <BindingDB Entry DOI>
10.7270/Q2028VWB

> <PMID>
30978561

> <Authors>
Liu, H; Sun, D; Du, H; Zheng, C; Li, J; Piao, H; Li, J; Sun, L

> <Institution>
Yanbian University College of Pharmacy

> <Link to Ligand in BindingDB>
http://www.bindingdb.org/bind/chemsearch/marvin/MolStructure.jsp?monomerid=50512278

> <Link to Ligand-Target Pair in BindingDB>
http://www.bindingdb.org/jsp/dbsearch/PrimarySearch_ki.jsp?energyterm=kJ/mole&tag=pol&polymerid=2622&target=Tyrosine-protein+phosphatase+non-receptor+type+1&column=ki&startPg=0&Increment=50&submit=Sea
rch
http://www.bindingdb.org/jsp/dbsearch/PrimarySearch_ki.jsp?energyterm=kJ/mole&tag=r21&monomerid=50512278&enzyme=Tyrosine-protein+phosphatase+non-receptor+type+1&column=ki&startPg=0&Increment=50&submit
=Search

> <PubChem CID of Ligand>
155537698

> <PubChem SID of Ligand>
440720860

> <Number of Protein Chains in Target (bigger than 1 implies a multichain complex)>
1

> <BindingDB Target Chain Sequence>
MEMEKEFEQIDKSGSWAAIYQDIRHEASDFPCRVAKLPKNKNRNRYRDVSPFDHSRIKLHQEDNDYINASLIKMEEAQRSYILTQGPLPNTCGHFWEMVWEQKSRGVVMLNRVMEKGSLKCAQYWPQKEEKEMIFEDTNLKLTLISEDIKSYYTVRQLELENLTTQETREILHFHYTTWPDFGVPESPASFLNFLFKVRE
SGSLSPEHGPVVVHCSAGIGRSGTFCLADTCLLLMDKRKDPSSVDIKKVLLEMRKFRMGLIQTADQLRFSYLAVIEGAKFIMGDSSVQDQWKELSHEDLEPPPEHIPPPPRPPKRILEPHNGKCREFFPNHQWVKEETQEDKDCPIKEEKGSPLNAAPYGIESMSQDTEVRSRVVGGSLRGAQAASPAKGEPSLPEKDED
HALSYWKPFLVNMCVATVLTAGAYLCYRFLFNSNT

> <PDB ID(s) of Target Chain>
1BZJ,1G7G,1GFY,1JF7,1KAK,1KAV,1LQF,1NL9,1NNY,1NO6,1NZ7,1OEM,1OEO,1OES,1OET,1OEU,1OEV,1ONY,1ONZ,1PH0,1PXH,1PYN,1Q1M,1Q6J,1Q6M,1Q6N,1Q6P,1Q6S,1Q6T,1QXK,1SUG,1T48,1T49,1T4J,1WAX,1XBO,2AZR,2B07,2BGD,2BGE,
2CM2,2CM3,2CM7,2CM8,2CMA,2CMB,2CMC,2CNE,2CNF,2CNG,2CNH,2CNI,2F6T,2F6V,2F6W,2F6Y,2F6Z,2F70,2F71,2FJN,2H4G,2H4K,2HB1,2HNP,2HNQ,2QBP,2QBQ,2QBR,2QBS,2VEU,2VEV,2VEW,2VEX,2VEY,2ZMM,2ZN7,3A5J,3CWE,3D9C,3EAX,
3EB1,3EU0,3I7Z,3I80,3SME,4BJO,4I8N,4QBW,4Y14,5K9V,5K9W,5KA0,5KA1,5T19,6B90,6NTP,6W30,7KEY,7KLX,7LFO,7MN9,7MNA,8DU7,8G65,8G67,8G68,8G69,8G6A,8SKL

> <UniProt (SwissProt) Recommended Name of Target Chain>
Tyrosine-protein phosphatase non-receptor type 1

> <UniProt (SwissProt) Entry Name of Target Chain>
PTN1_HUMAN

> <UniProt (SwissProt) Primary ID of Target Chain>
P18031

> <UniProt (SwissProt) Secondary ID(s) of Target Chain>
Q5TGD8 Q9BQV9 Q9NQQ4

$$$$
Molecule
  SciTegic10242319433D

 99104  0  0  0  0            999 V2000
   20.0033  -18.8925   -0.9646 O   0  0
   19.6165  -19.9654    0.0362 S   0  0
   19.9388  -19.4785    1.4358 O   0  0
   14.3304   -7.6745    1.2039 O   0  0
   14.9856   -8.3940    0.0405 S   0  0
   14.4323   -7.8279   -1.2527 O   0  0
    8.8630  -18.3343   -0.2853 C   0  0
   10.3552  -18.0837    0.1754 C   0  0  2  0  0  0
   10.4887  -16.5995   -0.2607 C   0  0  1  0  0  0
    9.2188  -16.0464    0.4756 C   0  0
    8.2285  -17.0855    0.1422 N   0  0
    6.7806  -16.8204    0.2368 C   0  0
    6.4332  -15.6933    0.5780 O   0  0
    5.6783  -17.8654    0.0187 C   0  0
    4.3811  -17.4452    0.1550 N   0  0
    5.9451  -19.0350   -0.2395 O   0  0
   11.7688  -16.0222    0.1676 O   0  0
   11.2893  -19.1116   -0.4134 O   0  0
   12.1175  -14.6460   -0.0195 C   0  0
   12.7361  -19.0899   -0.1587 C   0  0
   13.3134  -14.2641    0.4395 C   0  0
   13.7664  -12.8735    0.3309 C   0  0
   12.9782  -11.9653   -0.2355 C   0  0
   11.6571  -12.3748   -0.7578 C   0  0
   11.2474  -13.6447   -0.6591 C   0  0
   13.4978  -20.0235   -0.7424 C   0  0
   14.9760  -20.0298   -0.5665 C   0  0
   15.5595  -19.0875    0.1752 C   0  0
   14.7282  -18.0801    0.8290 C   0  0
   13.4036  -18.0892    0.6826 C   0  0
   13.4033  -10.5491   -0.3225 C   0  0
   14.5830  -10.1303    0.1472 C   0  0
   16.6643   -8.1195    0.1146 O   0  0
   16.8923   -6.7008    0.0508 C   0  0
   18.4006   -6.3973    0.1232 C   0  0
   17.0731  -19.0145    0.3485 C   0  0
   17.8249  -20.2955   -0.0909 C   0  0
   20.5224  -21.3727   -0.2714 O   0  0
   21.9165  -21.0677   -0.1117 C   0  0
   22.7612  -22.3392   -0.3179 C   0  0
    3.1696  -18.2672    0.0571 C   0  0
    1.9722  -17.6637    0.1128 C   0  0
    0.7056  -18.4496    0.0562 C   0  0
    0.7328  -19.7831   -0.0416 C   0  0
    2.0645  -20.4373   -0.1024 C   0  0
    3.2012  -19.7308   -0.0588 C   0  0
   -0.4539  -20.6726   -0.0848 O   0  0
   -1.8650  -20.2372   -0.0466 C   0  0
   -2.2802  -18.9663    0.0060 C   0  0
   -3.7238  -18.6470    0.0376 C   0  0
   -2.9000  -21.3040   -0.0684 C   0  0
   -4.2005  -21.0030   -0.0366 C   0  0
   -4.6281  -19.6253    0.0167 C   0  0
   -6.0609  -19.3274    0.0464 C   0  0
   -6.9495  -20.3239    0.0275 C   0  0
   -6.5124  -21.7362   -0.0233 C   0  0
   -5.2163  -22.0572   -0.0540 C   0  0
    8.7942  -18.4697   -1.3647 H   0  0
    8.4278  -19.1976    0.2181 H   0  0
   10.4053  -18.1401    1.2628 H   0  0
   10.3724  -16.5082   -1.3406 H   0  0
    9.3786  -15.9758    1.5515 H   0  0
    8.9231  -15.0719    0.0869 H   0  0
    4.2358  -16.4041    0.3547 H   0  0
   13.9664  -15.0025    0.9047 H   0  0
   14.7458  -12.5858    0.7133 H   0  0
   11.0100  -11.6345   -1.2282 H   0  0
   10.2731  -13.9371   -1.0507 H   0  0
   13.0279  -20.7917   -1.3566 H   0  0
   15.5797  -20.8024   -1.0426 H   0  0
   15.1968  -17.3116    1.4438 H   0  0
   12.8041  -17.3388    1.1978 H   0  0
   12.7325   -9.8247   -0.7844 H   0  0
   15.2867  -10.8366    0.5876 H   0  0
   16.4926   -6.3144   -0.8867 H   0  0
   16.3881   -6.2178    0.8878 H   0  0
   18.5577   -5.3198    0.0738 H   0  0
   18.9087   -6.8767   -0.7136 H   0  0
   18.8042   -6.7802    1.0605 H   0  0
   17.4451  -18.1794   -0.2449 H   0  0
   17.2882  -18.8365    1.4022 H   0  0
   17.5541  -21.1259    0.5613 H   0  0
   17.5658  -20.5421   -1.1205 H   0  0
   22.2082  -20.3176   -0.8468 H   0  0
   22.0881  -20.6794    0.8922 H   0  0
   23.8171  -22.0984   -0.1948 H   0  0
   22.5926  -22.7292   -1.3216 H   0  0
   22.4725  -23.0909    0.4168 H   0  0
    1.9243  -16.5784    0.2010 H   0  0
   -0.2525  -17.9314    0.0951 H   0  0
    2.1182  -21.5229   -0.1847 H   0  0
    4.1597  -20.2473   -0.1098 H   0  0
   -1.5479  -18.1592    0.0257 H   0  0
   -4.0493  -17.6075    0.0782 H   0  0
   -2.5924  -22.3488   -0.1109 H   0  0
   -6.4022  -18.2929    0.0841 H   0  0
   -8.0145  -20.0928    0.0498 H   0  0
   -7.2609  -22.5285   -0.0358 H   0  0
   -4.9148  -23.1040   -0.0921 H   0  0
  2  1  2  0
  3  2  2  0
  5  4  2  0
  6  5  2  0
  7  8  1  0
  8  9  1  0
  9 10  1  0
 10 11  1  0
 11  7  1  0
 11 12  1  0
 12 13  2  0
 12 14  1  0
 14 15  1  0
 14 16  2  0
  9 17  1  0
  8 18  1  0
 17 19  1  0
 18 20  1  0
 19 21  2  0
 21 22  1  0
 22 23  2  0
 23 24  1  0
 24 25  2  0
 25 19  1  0
 20 26  2  0
 26 27  1  0
 27 28  2  0
 28 29  1  0
 29 30  2  0
 30 20  1  0
 23 31  1  0
 31 32  2  0
 32  5  1  0
  5 33  1  0
 33 34  1  0
 34 35  1  0
 28 36  1  0
 36 37  1  0
 37  2  1  0
  2 38  1  0
 38 39  1  0
 39 40  1  0
 15 41  1  0
 41 42  2  0
 42 43  1  0
 43 44  2  0
 44 45  1  0
 45 46  2  0
 46 41  1  0
 44 47  1  0
 47 48  1  0
 48 49  2  0
 49 50  1  0
 50 53  2  0
 52 51  2  0
 51 48  1  0
 52 53  1  0
 53 54  1  0
 54 55  2  0
 55 56  1  0
 56 57  2  0
 57 52  1  0
  7 58  1  0
  7 59  1  0
  8 60  1  0
  9 61  1  0
 10 62  1  0
 10 63  1  0
 15 64  1  0
 21 65  1  0
 22 66  1  0
 24 67  1  0
 25 68  1  0
 26 69  1  0
 27 70  1  0
 29 71  1  0
 30 72  1  0
 31 73  1  0
 32 74  1  0
 34 75  1  0
 34 76  1  0
 35 77  1  0
 35 78  1  0
 35 79  1  0
 36 80  1  0
 36 81  1  0
 37 82  1  0
 37 83  1  0
 39 84  1  0
 39 85  1  0
 40 86  1  0
 40 87  1  0
 40 88  1  0
 42 89  1  0
 43 90  1  0
 45 91  1  0
 46 92  1  0
 49 93  1  0
 50 94  1  0
 51 95  1  0
 54 96  1  0
 55 97  1  0
 56 98  1  0
 57 99  1  0
M  END
> <Name>
Molecule

> <Clean Energy>
43.3339

> <From>
www.bindingDB.org

> <BindingDB Reactant_set_id>
51310193

> <Ligand InChI>
InChI=1S/C42H42N2O11S2/c1-3-51-56(47,48)25-23-30-9-16-36(17-10-30)54-39-28-44(29-40(39)55-37-18-11-31(12-19-37)24-26-57(49,50)52-4-2)42(46)41(45)43-34-14-21-35(22-15-34)53-38-20-13-32-7-5-6-8-33(32)27
-38/h5-23,25,27,39-40H,3-4,24,26,28-29H2,1-2H3,(H,43,45)/b25-23+/t39-,40-/m1/s1

> <Ligand InChI Key>
GWBXKJNOYLYZOV-RUGVFTPWSA-N

> <BindingDB MonomerID>
50531694

> <BindingDB Ligand Name>
CHEMBL4587526

> <Target Name>
Tyrosine-protein phosphatase non-receptor type 1

> <Target Source Organism According to Curator or DataSource>
Homo sapiens

> <IC50 (nM)>
360

> <Curation/DataSource>
ChEMBL

> <Article DOI>
10.1016/j.ejmech.2018.12.032

> <BindingDB Entry DOI>
10.7270/Q2KK9G90

> <PMID>
30611982

> <Authors>
Xie, F; Yang, F; Liang, Y; Li, L; Xia, Y; Jiang, F; Liu, W; Qi, Y; Chowdhury, SR; Xie, D; Fu, L

> <Institution>
Shanghai Jiao Tong University (SJTU)

> <Link to Ligand in BindingDB>
http://www.bindingdb.org/bind/chemsearch/marvin/MolStructure.jsp?monomerid=50531694

> <Link to Ligand-Target Pair in BindingDB>
http://www.bindingdb.org/jsp/dbsearch/PrimarySearch_ki.jsp?energyterm=kJ/mole&tag=pol&polymerid=2622&target=Tyrosine-protein+phosphatase+non-receptor+type+1&column=ki&startPg=0&Increment=50&submit=Sea
rch
http://www.bindingdb.org/jsp/dbsearch/PrimarySearch_ki.jsp?energyterm=kJ/mole&tag=r21&monomerid=50531694&enzyme=Tyrosine-protein+phosphatase+non-receptor+type+1&column=ki&startPg=0&Increment=50&submit
=Search

> <PubChem CID of Ligand>
155566497

> <PubChem SID of Ligand>
440740276

> <Number of Protein Chains in Target (bigger than 1 implies a multichain complex)>
1

> <BindingDB Target Chain Sequence>
MEMEKEFEQIDKSGSWAAIYQDIRHEASDFPCRVAKLPKNKNRNRYRDVSPFDHSRIKLHQEDNDYINASLIKMEEAQRSYILTQGPLPNTCGHFWEMVWEQKSRGVVMLNRVMEKGSLKCAQYWPQKEEKEMIFEDTNLKLTLISEDIKSYYTVRQLELENLTTQETREILHFHYTTWPDFGVPESPASFLNFLFKVRE
SGSLSPEHGPVVVHCSAGIGRSGTFCLADTCLLLMDKRKDPSSVDIKKVLLEMRKFRMGLIQTADQLRFSYLAVIEGAKFIMGDSSVQDQWKELSHEDLEPPPEHIPPPPRPPKRILEPHNGKCREFFPNHQWVKEETQEDKDCPIKEEKGSPLNAAPYGIESMSQDTEVRSRVVGGSLRGAQAASPAKGEPSLPEKDED
HALSYWKPFLVNMCVATVLTAGAYLCYRFLFNSNT

> <PDB ID(s) of Target Chain>
1BZJ,1G7G,1GFY,1JF7,1KAK,1KAV,1LQF,1NL9,1NNY,1NO6,1NZ7,1OEM,1OEO,1OES,1OET,1OEU,1OEV,1ONY,1ONZ,1PH0,1PXH,1PYN,1Q1M,1Q6J,1Q6M,1Q6N,1Q6P,1Q6S,1Q6T,1QXK,1SUG,1T48,1T49,1T4J,1WAX,1XBO,2AZR,2B07,2BGD,2BGE,
2CM2,2CM3,2CM7,2CM8,2CMA,2CMB,2CMC,2CNE,2CNF,2CNG,2CNH,2CNI,2F6T,2F6V,2F6W,2F6Y,2F6Z,2F70,2F71,2FJN,2H4G,2H4K,2HB1,2HNP,2HNQ,2QBP,2QBQ,2QBR,2QBS,2VEU,2VEV,2VEW,2VEX,2VEY,2ZMM,2ZN7,3A5J,3CWE,3D9C,3EAX,
3EB1,3EU0,3I7Z,3I80,3SME,4BJO,4I8N,4QBW,4Y14,5K9V,5K9W,5KA0,5KA1,5T19,6B90,6NTP,6W30,7KEY,7KLX,7LFO,7MN9,7MNA,8DU7,8G65,8G67,8G68,8G69,8G6A,8SKL

> <UniProt (SwissProt) Recommended Name of Target Chain>
Tyrosine-protein phosphatase non-receptor type 1

> <UniProt (SwissProt) Entry Name of Target Chain>
PTN1_HUMAN

> <UniProt (SwissProt) Primary ID of Target Chain>
P18031

> <UniProt (SwissProt) Secondary ID(s) of Target Chain>
Q5TGD8 Q9BQV9 Q9NQQ4

$$$$
Molecule
  SciTegic10242319433D

 48 50  0  0  0  0            999 V2000
    5.9598    3.0149    0.0324 C   0  0
    7.4228    2.1855   -0.0487 P   0  0
    4.6521    2.1731    0.0417 C   0  0
   -0.6108   -2.3116    0.1508 C   0  0
    0.8545   -1.6684    0.2102 C   0  0  2  0  0  0
    4.5758    0.8552    0.2952 C   0  0
    3.3803    2.8780   -0.3139 C   0  0
    7.6468    1.4423    1.0909 O   0  0
    0.9540   -0.1192   -0.3673 C   0  0
    3.3414    0.2004    0.2003 C   0  0
    5.8606    3.8588   -1.0518 F   0  0
    5.9669    3.8174    1.1521 F   0  0
   -0.7207   -3.5387    0.1162 O   0  0
    2.2176    0.7602   -0.1536 C   0  0
   -1.9379   -1.5843    0.1072 C   0  0
    2.0097   -2.8157   -0.0390 C   0  0
    8.5783    3.2017   -0.1609 O   0  0
    7.4284    1.2725   -1.3098 O   0  0
    5.8832   -0.1887    0.6747 Cl  0  0
    2.2253    2.2050   -0.4159 C   0  0
   -3.0222   -2.3498   -0.0275 C   0  0
   -2.1197   -0.1217    0.2067 C   0  0
    3.1908   -2.5654   -0.6085 C   0  0
    1.7897   -4.2123    0.4101 C   0  0
   -3.3388    0.4137    0.1521 C   0  0
   -4.3597   -1.7629   -0.0860 C   0  0
    2.7236   -5.1525    0.2581 C   0  0
    4.2257   -3.5885   -0.7686 C   0  0
   -4.5120   -0.4445   -0.0027 C   0  0
    4.0038   -4.8275   -0.3507 C   0  0
    0.9615   -1.4968    1.2813 H   0  0
    3.3935    3.9532   -0.4923 H   0  0
    0.8075   -0.1856   -1.4453 H   0  0
    0.1234    0.4269    0.0799 H   0  0
    3.3178   -0.8623    0.4416 H   0  0
    8.4534    3.7801   -1.0283 H   0  0
    6.6378    0.5843   -1.2477 H   0  0
    1.3058    2.7225   -0.6895 H   0  0
   -2.9088   -3.4318   -0.0951 H   0  0
   -1.2500    0.5245    0.3256 H   0  0
    3.3932   -1.5570   -0.9694 H   0  0
    0.8406   -4.4770    0.8761 H   0  0
   -3.4615    1.4945    0.2231 H   0  0
   -5.2325   -2.4061   -0.1979 H   0  0
    2.5261   -6.1710    0.5925 H   0  0
    5.1786   -3.3319   -1.2314 H   0  0
   -5.5084   -0.0052   -0.0497 H   0  0
    4.7716   -5.5931   -0.4623 H   0  0
  2  1  1  0
  3  1  1  0
  4  5  1  0
  5  9  1  0
  6  3  2  0
  7  3  1  0
  8  2  2  0
  9 14  1  0
 10  6  1  0
 11  1  1  0
 12  1  1  0
 13  4  2  0
 14 20  1  0
 15  4  1  0
 16  5  1  0
 17  2  1  0
 18  2  1  0
 19  6  1  0
 20  7  2  0
 21 15  2  0
 22 15  1  0
 23 16  2  0
 24 16  1  0
 25 22  2  0
 26 21  1  0
 27 24  2  0
 28 23  1  0
 29 25  1  0
 30 27  1  0
 10 14  2  0
 28 30  2  0
 26 29  2  0
  5 31  1  0
  7 32  1  0
  9 33  1  0
  9 34  1  0
 10 35  1  0
 17 36  1  0
 18 37  1  0
 20 38  1  0
 21 39  1  0
 22 40  1  0
 23 41  1  0
 24 42  1  0
 25 43  1  0
 26 44  1  0
 27 45  1  0
 28 46  1  0
 29 47  1  0
 30 48  1  0
M  END
> <Name>
Molecule

> <Clean Energy>
48.9688

> <From>
www.bindingDB.org

> <BindingDB Reactant_set_id>
50026895

> <Ligand InChI>
InChI=1S/C22H18ClF2O4P/c23-20-14-15(11-12-19(20)22(24,25)30(27,28)29)13-18(16-7-3-1-4-8-16)21(26)17-9-5-2-6-10-17/h1-12,14,18H,13H2,(H2,27,28,29)

> <Ligand InChI Key>
PRIBWEDDPMECKZ-UHFFFAOYSA-N

> <BindingDB MonomerID>
50142318

> <BindingDB Ligand Name>
CHEMBL428651::{[2-Chloro-4-(3-oxo-2,3-diphenyl-propyl)-phenyl]-difluoro-methyl}-phosphonic acid

> <Target Name>
Tyrosine-protein phosphatase non-receptor type 1

> <Target Source Organism According to Curator or DataSource>
Homo sapiens

> <IC50 (nM)>
360

> <Curation/DataSource>
ChEMBL

> <Article DOI>
10.1016/j.bmcl.2003.11.048

> <BindingDB Entry DOI>
10.7270/Q28C9VPM

> <PMID>
15013019

> <Authors>
Dufresne, C; Roy, P; Wang, Z; Asante-Appiah, E; Cromlish, W; Boie, Y; Forghani, F; Desmarais, S; Wang, Q; Skorey, K; Waddleton, D; Ramachandran, C; Kennedy, BP; Xu, L; Gordon, R; Chan, CC; Leblanc, Y

> <Institution>
Merck Frosst Centre for Therapeutic Research

> <Link to Ligand in BindingDB>
http://www.bindingdb.org/bind/chemsearch/marvin/MolStructure.jsp?monomerid=50142318

> <Link to Ligand-Target Pair in BindingDB>
http://www.bindingdb.org/jsp/dbsearch/PrimarySearch_ki.jsp?energyterm=kJ/mole&tag=pol&polymerid=2622&target=Tyrosine-protein+phosphatase+non-receptor+type+1&column=ki&startPg=0&Increment=50&submit=Sea
rch
http://www.bindingdb.org/jsp/dbsearch/PrimarySearch_ki.jsp?energyterm=kJ/mole&tag=r21&monomerid=50142318&enzyme=Tyrosine-protein+phosphatase+non-receptor+type+1&column=ki&startPg=0&Increment=50&submit
=Search

> <PubChem CID of Ligand>
44265546

> <PubChem SID of Ligand>
104031709

> <ChEMBL ID of Ligand>
CHEMBL428651

> <ZINC ID of Ligand>
ZINC25988278

> <Number of Protein Chains in Target (bigger than 1 implies a multichain complex)>
1

> <BindingDB Target Chain Sequence>
MEMEKEFEQIDKSGSWAAIYQDIRHEASDFPCRVAKLPKNKNRNRYRDVSPFDHSRIKLHQEDNDYINASLIKMEEAQRSYILTQGPLPNTCGHFWEMVWEQKSRGVVMLNRVMEKGSLKCAQYWPQKEEKEMIFEDTNLKLTLISEDIKSYYTVRQLELENLTTQETREILHFHYTTWPDFGVPESPASFLNFLFKVRE
SGSLSPEHGPVVVHCSAGIGRSGTFCLADTCLLLMDKRKDPSSVDIKKVLLEMRKFRMGLIQTADQLRFSYLAVIEGAKFIMGDSSVQDQWKELSHEDLEPPPEHIPPPPRPPKRILEPHNGKCREFFPNHQWVKEETQEDKDCPIKEEKGSPLNAAPYGIESMSQDTEVRSRVVGGSLRGAQAASPAKGEPSLPEKDED
HALSYWKPFLVNMCVATVLTAGAYLCYRFLFNSNT

> <PDB ID(s) of Target Chain>
1BZJ,1G7G,1GFY,1JF7,1KAK,1KAV,1LQF,1NL9,1NNY,1NO6,1NZ7,1OEM,1OEO,1OES,1OET,1OEU,1OEV,1ONY,1ONZ,1PH0,1PXH,1PYN,1Q1M,1Q6J,1Q6M,1Q6N,1Q6P,1Q6S,1Q6T,1QXK,1SUG,1T48,1T49,1T4J,1WAX,1XBO,2AZR,2B07,2BGD,2BGE,
2CM2,2CM3,2CM7,2CM8,2CMA,2CMB,2CMC,2CNE,2CNF,2CNG,2CNH,2CNI,2F6T,2F6V,2F6W,2F6Y,2F6Z,2F70,2F71,2FJN,2H4G,2H4K,2HB1,2HNP,2HNQ,2QBP,2QBQ,2QBR,2QBS,2VEU,2VEV,2VEW,2VEX,2VEY,2ZMM,2ZN7,3A5J,3CWE,3D9C,3EAX,
3EB1,3EU0,3I7Z,3I80,3SME,4BJO,4I8N,4QBW,4Y14,5K9V,5K9W,5KA0,5KA1,5T19,6B90,6NTP,6W30,7KEY,7KLX,7LFO,7MN9,7MNA,8DU7,8G65,8G67,8G68,8G69,8G6A,8SKL

> <UniProt (SwissProt) Recommended Name of Target Chain>
Tyrosine-protein phosphatase non-receptor type 1

> <UniProt (SwissProt) Entry Name of Target Chain>
PTN1_HUMAN

> <UniProt (SwissProt) Primary ID of Target Chain>
P18031

> <UniProt (SwissProt) Secondary ID(s) of Target Chain>
Q5TGD8 Q9BQV9 Q9NQQ4

$$$$
Molecule
  SciTegic10242319433D

 55 59  0  0  0  0            999 V2000
    1.3528   -4.3002   -0.0002 C   0  0
    1.8549   -3.0362   -0.0002 C   0  0
   -0.3556   -4.2463    0.0001 S   0  0
    0.7229   -1.9992    0.0002 C   0  0
   -0.5706   -2.6136    0.0007 C   0  0
    7.6292   -1.7356   -0.0005 C   0  0
    9.4742   -0.1229    0.0017 C   0  0
    3.3431   -2.6950   -0.0001 C   0  0
    8.0285   -0.4589    0.0014 C   0  0
    2.1589   -5.5779    0.0001 C   0  0
   10.3970   -1.0697    0.0049 C   0  0
   12.4415   -3.0869    0.0029 C   0  0
    6.1379   -2.0687   -0.0006 C   0  0
   11.7724   -0.6552   -0.0011 O   0  0
    8.6664   -2.8030    0.0036 C   0  0
   11.7084   -3.8784    0.0232 O   0  0
    3.7587   -1.4223    0.0010 C   0  0
    4.3695   -3.7591   -0.0006 C   0  0
    9.4941   -1.9992   -0.0323 C   0  0
    5.2194   -1.0957    0.0001 C   0  0
    5.6739   -3.4701   -0.0009 C   0  0
   12.8382   -1.6452   -0.0106 C   0  0
   10.0217    1.6967    0.0042 Br  0  0
   13.3947   -4.0754    0.0018 O   0  0
    1.2664   -6.8118   -0.0005 C   0  0
    0.8413   -0.6745    0.0005 C   0  0
   -1.7086   -1.9318    0.0007 C   0  0
    1.8208   -8.0241   -0.0006 C   0  0
   -0.1989   -6.7025    0.0008 C   0  0
   -0.4081    0.1330    0.0004 C   0  0
   -1.6103   -0.4616    0.0008 C   0  0
   -0.9635   -7.7828    0.0009 C   0  0
    0.9801   -9.2262   -0.0001 C   0  0
   -0.3460   -9.1121    0.0000 C   0  0
    7.2870    0.3400    0.0028 H   0  0
    2.7881   -5.5977   -0.8897 H   0  0
    2.7872   -5.5979    0.8906 H   0  0
    8.6509   -3.8926    0.0296 H   0  0
    3.0257   -0.6156    0.0026 H   0  0
    4.0550   -4.8027   -0.0006 H   0  0
    9.8311   -2.3379   -1.0119 H   0  0
    5.5386   -0.0534    0.0001 H   0  0
    6.4045   -4.2791   -0.0015 H   0  0
   13.4557   -1.4683    0.8700 H   0  0
   13.4307   -1.4781   -0.9100 H   0  0
   13.9870   -3.9902   -0.8610 H   0  0
    1.8209   -0.1966    0.0008 H   0  0
   -2.6743   -2.4372    0.0005 H   0  0
    2.9063   -8.1228   -0.0011 H   0  0
   -0.6633   -5.7165    0.0016 H   0  0
   -0.3457    1.2212   -0.0001 H   0  0
   -2.5166    0.1441    0.0014 H   0  0
   -2.0491   -7.6843    0.0018 H   0  0
    1.4417  -10.2136    0.0002 H   0  0
   -0.9712  -10.0050   -0.0007 H   0  0
  2  1  2  0
  3  1  1  0
  4  2  1  0
  5  3  1  0
  6 13  1  0
  7  9  1  0
  8  2  1  0
  9  6  2  0
 10  1  1  0
 11 19  1  0
 12 22  1  0
 13 21  1  0
 14 11  1  0
 15  6  1  0
 16 12  2  0
 17  8  2  0
 18  8  1  0
 19 15  2  0
 20 17  1  0
 21 18  2  0
 22 14  1  0
 23  7  1  0
 24 12  1  0
 25 10  1  0
 26  4  2  0
 27  5  2  0
 28 25  2  0
 29 25  1  0
 30 26  1  0
 31 27  1  0
 32 29  2  0
 33 28  1  0
 34 32  1  0
  4  5  1  0
 30 31  2  0
 13 20  2  0
 33 34  2  0
  7 11  2  0
  9 35  1  0
 10 36  1  0
 10 37  1  0
 15 38  1  0
 17 39  1  0
 18 40  1  0
 19 41  1  0
 20 42  1  0
 21 43  1  0
 22 44  1  0
 22 45  1  0
 24 46  1  0
 26 47  1  0
 27 48  1  0
 28 49  1  0
 29 50  1  0
 30 51  1  0
 31 52  1  0
 32 53  1  0
 33 54  1  0
 34 55  1  0
M  END
> <Name>
Molecule

> <Clean Energy>
319.337

> <From>
www.bindingDB.org

> <BindingDB Reactant_set_id>
50154610

> <Ligand InChI>
InChI=1S/C29H21BrO3S/c30-24-17-22(14-15-25(24)33-18-28(31)32)20-10-12-21(13-11-20)29-23-8-4-5-9-26(23)34-27(29)16-19-6-2-1-3-7-19/h1-15,17H,16,18H2,(H,31,32)

> <Ligand InChI Key>
XFYYSLBHZPQYCH-UHFFFAOYSA-N

> <BindingDB MonomerID>
50086924

> <BindingDB Ligand Name>
2-(4'-(2-benzylbenzo[b]thiophen-3-yl)-3-bromobiphenyl-4-yloxy)acetic acid::CHEMBL283635::[4'-(2-Benzyl-benzo[b]thiophen-3-yl)-3-bromo-biphenyl-4-yloxy]-acetic acid

> <Target Name>
Tyrosine-protein phosphatase non-receptor type 1

> <Target Source Organism According to Curator or DataSource>
Homo sapiens

> <IC50 (nM)>
360

> <Curation/DataSource>
ChEMBL

> <Article DOI>
10.1021/jm990560c

> <BindingDB Entry DOI>
10.7270/Q2W958FT

> <PMID>
10753467

> <Authors>
Malamas, MS; Sredy, J; Moxham, C; Katz, A; Xu, W; McDevitt, R; Adebayo, FO; Sawicki, DR; Seestaller, L; Sullivan, D; Taylor, JR

> <Institution>
Wyeth-Ayerst Research

> <Link to Ligand in BindingDB>
http://www.bindingdb.org/bind/chemsearch/marvin/MolStructure.jsp?monomerid=50086924

> <Link to Ligand-Target Pair in BindingDB>
http://www.bindingdb.org/jsp/dbsearch/PrimarySearch_ki.jsp?energyterm=kJ/mole&tag=pol&polymerid=2622&target=Tyrosine-protein+phosphatase+non-receptor+type+1&column=ki&startPg=0&Increment=50&submit=Sea
rch
http://www.bindingdb.org/jsp/dbsearch/PrimarySearch_ki.jsp?energyterm=kJ/mole&tag=r21&monomerid=50086924&enzyme=Tyrosine-protein+phosphatase+non-receptor+type+1&column=ki&startPg=0&Increment=50&submit
=Search

> <PubChem CID of Ligand>
10839919

> <PubChem SID of Ligand>
103986035

> <ChEMBL ID of Ligand>
CHEMBL283635

> <ZINC ID of Ligand>
ZINC28758593

> <Number of Protein Chains in Target (bigger than 1 implies a multichain complex)>
1

> <BindingDB Target Chain Sequence>
MEMEKEFEQIDKSGSWAAIYQDIRHEASDFPCRVAKLPKNKNRNRYRDVSPFDHSRIKLHQEDNDYINASLIKMEEAQRSYILTQGPLPNTCGHFWEMVWEQKSRGVVMLNRVMEKGSLKCAQYWPQKEEKEMIFEDTNLKLTLISEDIKSYYTVRQLELENLTTQETREILHFHYTTWPDFGVPESPASFLNFLFKVRE
SGSLSPEHGPVVVHCSAGIGRSGTFCLADTCLLLMDKRKDPSSVDIKKVLLEMRKFRMGLIQTADQLRFSYLAVIEGAKFIMGDSSVQDQWKELSHEDLEPPPEHIPPPPRPPKRILEPHNGKCREFFPNHQWVKEETQEDKDCPIKEEKGSPLNAAPYGIESMSQDTEVRSRVVGGSLRGAQAASPAKGEPSLPEKDED
HALSYWKPFLVNMCVATVLTAGAYLCYRFLFNSNT

> <PDB ID(s) of Target Chain>
1BZJ,1G7G,1GFY,1JF7,1KAK,1KAV,1LQF,1NL9,1NNY,1NO6,1NZ7,1OEM,1OEO,1OES,1OET,1OEU,1OEV,1ONY,1ONZ,1PH0,1PXH,1PYN,1Q1M,1Q6J,1Q6M,1Q6N,1Q6P,1Q6S,1Q6T,1QXK,1SUG,1T48,1T49,1T4J,1WAX,1XBO,2AZR,2B07,2BGD,2BGE,
2CM2,2CM3,2CM7,2CM8,2CMA,2CMB,2CMC,2CNE,2CNF,2CNG,2CNH,2CNI,2F6T,2F6V,2F6W,2F6Y,2F6Z,2F70,2F71,2FJN,2H4G,2H4K,2HB1,2HNP,2HNQ,2QBP,2QBQ,2QBR,2QBS,2VEU,2VEV,2VEW,2VEX,2VEY,2ZMM,2ZN7,3A5J,3CWE,3D9C,3EAX,
3EB1,3EU0,3I7Z,3I80,3SME,4BJO,4I8N,4QBW,4Y14,5K9V,5K9W,5KA0,5KA1,5T19,6B90,6NTP,6W30,7KEY,7KLX,7LFO,7MN9,7MNA,8DU7,8G65,8G67,8G68,8G69,8G6A,8SKL

> <UniProt (SwissProt) Recommended Name of Target Chain>
Tyrosine-protein phosphatase non-receptor type 1

> <UniProt (SwissProt) Entry Name of Target Chain>
PTN1_HUMAN

> <UniProt (SwissProt) Primary ID of Target Chain>
P18031

> <UniProt (SwissProt) Secondary ID(s) of Target Chain>
Q5TGD8 Q9BQV9 Q9NQQ4

$$$$
Molecule
  SciTegic10242319433D

 65 70  0  0  0  0            999 V2000
    1.6928   -6.6093   -0.0001 C   0  0
    2.3192   -5.3986    0.0000 C   0  0
    0.2972   -6.4355    0.0001 O   0  0
    1.2377   -4.4054    0.0002 C   0  0
    0.0408   -5.1098    0.0003 C   0  0
    9.6328    3.6241    0.0019 C   0  0
    3.8419   -5.1002   -0.0002 C   0  0
    2.3772   -7.9890   -0.0004 C   0  0
   10.4375    2.4176    0.0020 C   0  0
    6.6021   -4.5748   -0.0014 C   0  0
    8.0045   -4.2650   -0.0018 C   0  0
    8.3989    3.5152    0.0036 O   0  0
    4.7539   -6.0796    0.0004 C   0  0
    4.3313   -3.7168   -0.0013 C   0  0
    5.6367   -3.4694   -0.0021 C   0  0
    6.1775   -5.8235    0.0000 C   0  0
    9.7449    1.2053    0.0066 C   0  0
   11.7756    2.4148   -0.0020 C   0  0
    8.3166   -2.9956   -0.0068 C   0  0
    9.0818   -5.2820    0.0037 C   0  0
   12.0778   -2.9467    0.0047 O   0  0
   10.6785   -3.4282    0.0003 C   0  0
   10.2187    4.8727   -0.0016 O   0  0
   11.8306   -0.0461    0.0006 C   0  0
    1.5038   -9.2126   -0.0001 C   0  0
   12.6186   -1.4561   -0.0077 C   0  0
    9.6584   -2.6117   -0.0062 C   0  0
   10.3656   -4.8813    0.0053 C   0  0
   10.4067    0.0735    0.0064 C   0  0
   12.5167    1.1039   -0.0037 C   0  0
    1.2724   -3.0742    0.0004 C   0  0
   -1.1466   -4.5182    0.0005 C   0  0
    0.1752   -9.1412    0.0006 C   0  0
    2.1599  -10.5213   -0.0005 C   0  0
   -0.0216   -2.3552    0.0007 C   0  0
   -1.1720   -3.0428    0.0007 C   0  0
    1.4339  -11.6354   -0.0002 C   0  0
   -0.6247  -10.3633    0.0010 C   0  0
   -0.0252  -11.5525    0.0006 C   0  0
    3.0039   -8.0391   -0.8908 H   0  0
    3.0047   -8.0392    0.8895 H   0  0
    4.4095   -7.1138    0.0012 H   0  0
    3.6216   -2.8895   -0.0016 H   0  0
    5.9928   -2.4392   -0.0032 H   0  0
    6.8885   -6.6497    0.0009 H   0  0
    8.6549    1.1998    0.0102 H   0  0
   12.3258    3.3557   -0.0041 H   0  0
    7.5315   -2.2395   -0.0114 H   0  0
    8.8365   -6.3440    0.0065 H   0  0
   10.8176    4.9813    0.8541 H   0  0
   13.2319   -1.4077   -0.9075 H   0  0
   13.2592   -1.4029    0.8726 H   0  0
    9.8730   -1.5430   -0.0116 H   0  0
   11.1704   -5.6164    0.0103 H   0  0
    9.8252   -0.8484    0.0111 H   0  0
   13.6066    1.0912   -0.0083 H   0  0
    2.2190   -2.5337    0.0004 H   0  0
   -2.0685   -5.0999    0.0005 H   0  0
   -0.3173   -8.1687    0.0010 H   0  0
    3.2481  -10.5827   -0.0011 H   0  0
   -0.0388   -1.2653    0.0008 H   0  0
   -2.1246   -2.5132    0.0009 H   0  0
    1.9259  -12.6080   -0.0005 H   0  0
   -1.7129  -10.3020    0.0015 H   0  0
   -0.6229  -12.4640    0.0008 H   0  0
  2  1  2  0
  3  1  1  0
  4  2  1  0
  5  3  1  0
  6  9  1  0
  7  2  1  0
  8  1  1  0
  9 18  2  0
 10 15  1  0
 11 10  1  0
 12  6  2  0
 13  7  2  0
 14  7  1  0
 15 14  2  0
 16 13  1  0
 17 29  2  0
 18 30  1  0
 19 11  2  0
 20 11  1  0
 21 22  1  0
 22 28  1  0
 23  6  1  0
 24 26  1  0
 25  8  1  0
 26 21  1  0
 27 19  1  0
 28 20  2  0
 29 24  1  0
 30 24  2  0
 31  4  2  0
 32  5  2  0
 33 25  2  0
 34 25  1  0
 35 31  1  0
 36 32  1  0
 37 34  2  0
 38 33  1  0
 39 37  1  0
  4  5  1  0
 35 36  2  0
 16 10  2  0
 38 39  2  0
 22 27  2  0
  9 17  1  0
  8 40  1  0
  8 41  1  0
 13 42  1  0
 14 43  1  0
 15 44  1  0
 16 45  1  0
 17 46  1  0
 18 47  1  0
 19 48  1  0
 20 49  1  0
 23 50  1  0
 26 51  1  0
 26 52  1  0
 27 53  1  0
 28 54  1  0
 29 55  1  0
 30 56  1  0
 31 57  1  0
 32 58  1  0
 33 59  1  0
 34 60  1  0
 35 61  1  0
 36 62  1  0
 37 63  1  0
 38 64  1  0
 39 65  1  0
M  END
> <Name>
Molecule

> <Clean Energy>
63.4346

> <From>
www.bindingDB.org

> <BindingDB Reactant_set_id>
50154680

> <Ligand InChI>
InChI=1S/C35H26O4/c36-35(37)29-12-10-25(11-13-29)23-38-30-20-18-27(19-21-30)26-14-16-28(17-15-26)34-31-8-4-5-9-32(31)39-33(34)22-24-6-2-1-3-7-24/h1-21H,22-23H2,(H,36,37)

> <Ligand InChI Key>
JRWYXZJCMPCPBV-UHFFFAOYSA-N

> <BindingDB MonomerID>
50086997

> <BindingDB Ligand Name>
4-((4'-(2-benzylbenzofuran-3-yl)biphenyl-4-yloxy)methyl)benzoic acid::4-[4'-(2-Benzyl-benzofuran-3-yl)-biphenyl-4-yloxymethyl]-benzoic acid::CHEMBL280992

> <Target Name>
Tyrosine-protein phosphatase non-receptor type 1

> <Target Source Organism According to Curator or DataSource>
Homo sapiens

> <IC50 (nM)>
360

> <Curation/DataSource>
ChEMBL

> <Article DOI>
10.1021/jm990560c

> <BindingDB Entry DOI>
10.7270/Q2W958FT

> <PMID>
10753467

> <Authors>
Malamas, MS; Sredy, J; Moxham, C; Katz, A; Xu, W; McDevitt, R; Adebayo, FO; Sawicki, DR; Seestaller, L; Sullivan, D; Taylor, JR

> <Institution>
Wyeth-Ayerst Research

> <Link to Ligand in BindingDB>
http://www.bindingdb.org/bind/chemsearch/marvin/MolStructure.jsp?monomerid=50086997

> <Link to Ligand-Target Pair in BindingDB>
http://www.bindingdb.org/jsp/dbsearch/PrimarySearch_ki.jsp?energyterm=kJ/mole&tag=pol&polymerid=2622&target=Tyrosine-protein+phosphatase+non-receptor+type+1&column=ki&startPg=0&Increment=50&submit=Sea
rch
http://www.bindingdb.org/jsp/dbsearch/PrimarySearch_ki.jsp?energyterm=kJ/mole&tag=r21&monomerid=50086997&enzyme=Tyrosine-protein+phosphatase+non-receptor+type+1&column=ki&startPg=0&Increment=50&submit
=Search

> <PubChem CID of Ligand>
10529709

> <PubChem SID of Ligand>
103986108

> <ChEMBL ID of Ligand>
CHEMBL280992

> <ZINC ID of Ligand>
ZINC13806760

> <Number of Protein Chains in Target (bigger than 1 implies a multichain complex)>
1

> <BindingDB Target Chain Sequence>
MEMEKEFEQIDKSGSWAAIYQDIRHEASDFPCRVAKLPKNKNRNRYRDVSPFDHSRIKLHQEDNDYINASLIKMEEAQRSYILTQGPLPNTCGHFWEMVWEQKSRGVVMLNRVMEKGSLKCAQYWPQKEEKEMIFEDTNLKLTLISEDIKSYYTVRQLELENLTTQETREILHFHYTTWPDFGVPESPASFLNFLFKVRE
SGSLSPEHGPVVVHCSAGIGRSGTFCLADTCLLLMDKRKDPSSVDIKKVLLEMRKFRMGLIQTADQLRFSYLAVIEGAKFIMGDSSVQDQWKELSHEDLEPPPEHIPPPPRPPKRILEPHNGKCREFFPNHQWVKEETQEDKDCPIKEEKGSPLNAAPYGIESMSQDTEVRSRVVGGSLRGAQAASPAKGEPSLPEKDED
HALSYWKPFLVNMCVATVLTAGAYLCYRFLFNSNT

> <PDB ID(s) of Target Chain>
1BZJ,1G7G,1GFY,1JF7,1KAK,1KAV,1LQF,1NL9,1NNY,1NO6,1NZ7,1OEM,1OEO,1OES,1OET,1OEU,1OEV,1ONY,1ONZ,1PH0,1PXH,1PYN,1Q1M,1Q6J,1Q6M,1Q6N,1Q6P,1Q6S,1Q6T,1QXK,1SUG,1T48,1T49,1T4J,1WAX,1XBO,2AZR,2B07,2BGD,2BGE,
2CM2,2CM3,2CM7,2CM8,2CMA,2CMB,2CMC,2CNE,2CNF,2CNG,2CNH,2CNI,2F6T,2F6V,2F6W,2F6Y,2F6Z,2F70,2F71,2FJN,2H4G,2H4K,2HB1,2HNP,2HNQ,2QBP,2QBQ,2QBR,2QBS,2VEU,2VEV,2VEW,2VEX,2VEY,2ZMM,2ZN7,3A5J,3CWE,3D9C,3EAX,
3EB1,3EU0,3I7Z,3I80,3SME,4BJO,4I8N,4QBW,4Y14,5K9V,5K9W,5KA0,5KA1,5T19,6B90,6NTP,6W30,7KEY,7KLX,7LFO,7MN9,7MNA,8DU7,8G65,8G67,8G68,8G69,8G6A,8SKL

> <UniProt (SwissProt) Recommended Name of Target Chain>
Tyrosine-protein phosphatase non-receptor type 1

> <UniProt (SwissProt) Entry Name of Target Chain>
PTN1_HUMAN

> <UniProt (SwissProt) Primary ID of Target Chain>
P18031

> <UniProt (SwissProt) Secondary ID(s) of Target Chain>
Q5TGD8 Q9BQV9 Q9NQQ4

$$$$
Molecule
  SciTegic10242319433D

 65 70  0  0  0  0            999 V2000
    1.6928   -6.6093   -0.0001 C   0  0
    2.3192   -5.3986    0.0000 C   0  0
    0.2972   -6.4355    0.0001 O   0  0
    1.2377   -4.4054    0.0002 C   0  0
    0.0408   -5.1098    0.0003 C   0  0
    9.6328    3.6241    0.0019 C   0  0
    3.8419   -5.1002   -0.0002 C   0  0
    2.3772   -7.9890   -0.0004 C   0  0
   10.4375    2.4176    0.0020 C   0  0
    6.6021   -4.5748   -0.0014 C   0  0
    8.0045   -4.2650   -0.0018 C   0  0
    8.3989    3.5152    0.0036 O   0  0
    4.7539   -6.0796    0.0004 C   0  0
    4.3313   -3.7168   -0.0013 C   0  0
    5.6367   -3.4694   -0.0021 C   0  0
    6.1775   -5.8235    0.0000 C   0  0
    9.7449    1.2053    0.0066 C   0  0
   11.7756    2.4148   -0.0020 C   0  0
    8.3166   -2.9956   -0.0068 C   0  0
    9.0818   -5.2820    0.0037 C   0  0
   12.0778   -2.9467    0.0047 O   0  0
   10.6785   -3.4282    0.0003 C   0  0
   10.2187    4.8727   -0.0016 O   0  0
   11.8306   -0.0461    0.0006 C   0  0
    1.5038   -9.2126   -0.0001 C   0  0
   12.6186   -1.4561   -0.0077 C   0  0
    9.6584   -2.6117   -0.0062 C   0  0
   10.3656   -4.8813    0.0053 C   0  0
   10.4067    0.0735    0.0064 C   0  0
   12.5167    1.1039   -0.0037 C   0  0
    1.2724   -3.0742    0.0004 C   0  0
   -1.1466   -4.5182    0.0005 C   0  0
    0.1752   -9.1412    0.0006 C   0  0
    2.1599  -10.5213   -0.0005 C   0  0
   -0.0216   -2.3552    0.0007 C   0  0
   -1.1720   -3.0428    0.0007 C   0  0
    1.4339  -11.6354   -0.0002 C   0  0
   -0.6247  -10.3633    0.0010 C   0  0
   -0.0252  -11.5525    0.0006 C   0  0
    3.0039   -8.0391   -0.8908 H   0  0
    3.0047   -8.0392    0.8895 H   0  0
    4.4095   -7.1138    0.0012 H   0  0
    3.6216   -2.8895   -0.0016 H   0  0
    5.9928   -2.4392   -0.0032 H   0  0
    6.8885   -6.6497    0.0009 H   0  0
    8.6549    1.1998    0.0102 H   0  0
   12.3258    3.3557   -0.0041 H   0  0
    7.5315   -2.2395   -0.0114 H   0  0
    8.8365   -6.3440    0.0065 H   0  0
   10.8176    4.9813    0.8541 H   0  0
   13.2319   -1.4077   -0.9075 H   0  0
   13.2592   -1.4029    0.8726 H   0  0
    9.8730   -1.5430   -0.0116 H   0  0
   11.1704   -5.6164    0.0103 H   0  0
    9.8252   -0.8484    0.0111 H   0  0
   13.6066    1.0912   -0.0083 H   0  0
    2.2190   -2.5337    0.0004 H   0  0
   -2.0685   -5.0999    0.0005 H   0  0
   -0.3173   -8.1687    0.0010 H   0  0
    3.2481  -10.5827   -0.0011 H   0  0
   -0.0388   -1.2653    0.0008 H   0  0
   -2.1246   -2.5132    0.0009 H   0  0
    1.9259  -12.6080   -0.0005 H   0  0
   -1.7129  -10.3020    0.0015 H   0  0
   -0.6229  -12.4640    0.0008 H   0  0
  2  1  2  0
  3  1  1  0
  4  2  1  0
  5  3  1  0
  6  9  1  0
  7  2  1  0
  8  1  1  0
  9 18  2  0
 10 15  1  0
 11 10  1  0
 12  6  2  0
 13  7  2  0
 14  7  1  0
 15 14  2  0
 16 13  1  0
 17 29  2  0
 18 30  1  0
 19 11  2  0
 20 11  1  0
 21 22  1  0
 22 28  1  0
 23  6  1  0
 24 26  1  0
 25  8  1  0
 26 21  1  0
 27 19  1  0
 28 20  2  0
 29 24  1  0
 30 24  2  0
 31  4  2  0
 32  5  2  0
 33 25  2  0
 34 25  1  0
 35 31  1  0
 36 32  1  0
 37 34  2  0
 38 33  1  0
 39 37  1  0
  4  5  1  0
 35 36  2  0
 16 10  2  0
 38 39  2  0
 22 27  2  0
  9 17  1  0
  8 40  1  0
  8 41  1  0
 13 42  1  0
 14 43  1  0
 15 44  1  0
 16 45  1  0
 17 46  1  0
 18 47  1  0
 19 48  1  0
 20 49  1  0
 23 50  1  0
 26 51  1  0
 26 52  1  0
 27 53  1  0
 28 54  1  0
 29 55  1  0
 30 56  1  0
 31 57  1  0
 32 58  1  0
 33 59  1  0
 34 60  1  0
 35 61  1  0
 36 62  1  0
 37 63  1  0
 38 64  1  0
 39 65  1  0
M  END
> <Name>
Molecule

> <Clean Energy>
63.4346

> <From>
www.bindingDB.org

> <BindingDB Reactant_set_id>
51015940

> <Ligand InChI>
InChI=1S/C35H26O4/c36-35(37)29-12-10-25(11-13-29)23-38-30-20-18-27(19-21-30)26-14-16-28(17-15-26)34-31-8-4-5-9-32(31)39-33(34)22-24-6-2-1-3-7-24/h1-21H,22-23H2,(H,36,37)

> <Ligand InChI Key>
JRWYXZJCMPCPBV-UHFFFAOYSA-N

> <BindingDB MonomerID>
50086997

> <BindingDB Ligand Name>
4-((4'-(2-benzylbenzofuran-3-yl)biphenyl-4-yloxy)methyl)benzoic acid::4-[4'-(2-Benzyl-benzofuran-3-yl)-biphenyl-4-yloxymethyl]-benzoic acid::CHEMBL280992

> <Target Name>
Tyrosine-protein phosphatase non-receptor type 1

> <Target Source Organism According to Curator or DataSource>
Homo sapiens

> <IC50 (nM)>
363.08

> <Curation/DataSource>
ChEMBL

> <Article DOI>
10.1016/j.bmcl.2010.04.033

> <BindingDB Entry DOI>
10.7270/Q27D2WCC

> <PMID>
20452766

> <Authors>
Cheng, Y; Zhou, M; Tung, CH; Ji, M; Zhang, F

> <Institution>
Tsinghua University

> <Link to Ligand in BindingDB>
http://www.bindingdb.org/bind/chemsearch/marvin/MolStructure.jsp?monomerid=50086997

> <Link to Ligand-Target Pair in BindingDB>
http://www.bindingdb.org/jsp/dbsearch/PrimarySearch_ki.jsp?energyterm=kJ/mole&tag=pol&polymerid=2622&target=Tyrosine-protein+phosphatase+non-receptor+type+1&column=ki&startPg=0&Increment=50&submit=Sea
rch
http://www.bindingdb.org/jsp/dbsearch/PrimarySearch_ki.jsp?energyterm=kJ/mole&tag=r21&monomerid=50086997&enzyme=Tyrosine-protein+phosphatase+non-receptor+type+1&column=ki&startPg=0&Increment=50&submit
=Search

> <PubChem CID of Ligand>
10529709

> <PubChem SID of Ligand>
103986108

> <ChEMBL ID of Ligand>
CHEMBL280992

> <ZINC ID of Ligand>
ZINC13806760

> <Number of Protein Chains in Target (bigger than 1 implies a multichain complex)>
1

> <BindingDB Target Chain Sequence>
MEMEKEFEQIDKSGSWAAIYQDIRHEASDFPCRVAKLPKNKNRNRYRDVSPFDHSRIKLHQEDNDYINASLIKMEEAQRSYILTQGPLPNTCGHFWEMVWEQKSRGVVMLNRVMEKGSLKCAQYWPQKEEKEMIFEDTNLKLTLISEDIKSYYTVRQLELENLTTQETREILHFHYTTWPDFGVPESPASFLNFLFKVRE
SGSLSPEHGPVVVHCSAGIGRSGTFCLADTCLLLMDKRKDPSSVDIKKVLLEMRKFRMGLIQTADQLRFSYLAVIEGAKFIMGDSSVQDQWKELSHEDLEPPPEHIPPPPRPPKRILEPHNGKCREFFPNHQWVKEETQEDKDCPIKEEKGSPLNAAPYGIESMSQDTEVRSRVVGGSLRGAQAASPAKGEPSLPEKDED
HALSYWKPFLVNMCVATVLTAGAYLCYRFLFNSNT

> <PDB ID(s) of Target Chain>
1BZJ,1G7G,1GFY,1JF7,1KAK,1KAV,1LQF,1NL9,1NNY,1NO6,1NZ7,1OEM,1OEO,1OES,1OET,1OEU,1OEV,1ONY,1ONZ,1PH0,1PXH,1PYN,1Q1M,1Q6J,1Q6M,1Q6N,1Q6P,1Q6S,1Q6T,1QXK,1SUG,1T48,1T49,1T4J,1WAX,1XBO,2AZR,2B07,2BGD,2BGE,
2CM2,2CM3,2CM7,2CM8,2CMA,2CMB,2CMC,2CNE,2CNF,2CNG,2CNH,2CNI,2F6T,2F6V,2F6W,2F6Y,2F6Z,2F70,2F71,2FJN,2H4G,2H4K,2HB1,2HNP,2HNQ,2QBP,2QBQ,2QBR,2QBS,2VEU,2VEV,2VEW,2VEX,2VEY,2ZMM,2ZN7,3A5J,3CWE,3D9C,3EAX,
3EB1,3EU0,3I7Z,3I80,3SME,4BJO,4I8N,4QBW,4Y14,5K9V,5K9W,5KA0,5KA1,5T19,6B90,6NTP,6W30,7KEY,7KLX,7LFO,7MN9,7MNA,8DU7,8G65,8G67,8G68,8G69,8G6A,8SKL

> <UniProt (SwissProt) Recommended Name of Target Chain>
Tyrosine-protein phosphatase non-receptor type 1

> <UniProt (SwissProt) Entry Name of Target Chain>
PTN1_HUMAN

> <UniProt (SwissProt) Primary ID of Target Chain>
P18031

> <UniProt (SwissProt) Secondary ID(s) of Target Chain>
Q5TGD8 Q9BQV9 Q9NQQ4

$$$$
Molecule
  SciTegic10242319433D

 73 79  0  0  0  0            999 V2000
   -4.1815   -1.6810   -0.0230 N   0  0
   -4.1875   -2.9236   -0.6221 N   0  0
   -2.5421   -8.3367   -0.3874 P   0  0
   -1.1408   -7.7438    0.3166 C   0  0
   -5.3234   -3.3814   -0.7926 N   0  0
    2.5739    3.7447    0.0390 C   0  0
   -2.8179   -0.8676    0.3069 C   0  0  1  0  0  0
   -5.6143   -1.3929    0.1725 C   0  0
    1.3356    3.4890    0.0054 N   0  0
    0.6670    4.6574    0.0053 N   0  0
    2.6988    5.1058    0.0739 N   0  0
    1.4534    5.5873    0.0428 N   0  0
    3.7820    2.7778    0.0878 C   0  0
   -6.2679   -2.4778   -0.3413 C   0  0
   -1.2971   -1.7846   -0.1659 C   0  0  1  0  0  0
    3.8148    1.3909    0.0205 C   0  0
   -1.1590   -6.2273    0.2645 C   0  0
   -2.6063   -7.9132   -1.6998 O   0  0
    2.6125    0.4484    0.0615 C   0  0
    0.2261   -1.1183   -0.0315 C   0  0
   -1.2382   -3.3902    0.0542 C   0  0
   -2.9878    0.8434    0.0373 C   0  0
   -1.1405   -8.1701    1.6263 F   0  0
   -0.0351   -8.2307   -0.3556 F   0  0
   -2.5256   -9.8850   -0.3505 O   0  0
   -3.7974   -7.8361    0.3748 O   0  0
   -2.2442   -5.4603    0.8776 C   0  0
   -0.1926   -5.5778   -0.3717 C   0  0
    1.4311    0.9050    0.2992 C   0  0
    2.7144   -1.0170   -0.2350 C   0  0
   -2.2782   -4.1280    0.7850 C   0  0
   -0.2451   -4.1151   -0.4803 C   0  0
    1.5856   -1.7646   -0.2783 C   0  0
    0.2928    0.1336    0.2584 C   0  0
   -6.3026   -0.3796    0.7004 C   0  0
    5.0629    3.4972    0.0473 C   0  0
    5.1250    0.7286    0.0254 C   0  0
   -7.5945   -2.5938   -0.3820 C   0  0
   -1.9742    1.6951   -0.0473 C   0  0
   -4.2756    1.5151   -0.0668 C   0  0
   -7.7805   -0.4230    0.6801 C   0  0
    6.2590    1.4210    0.0063 C   0  0
    6.2265    2.8637    0.0434 C   0  0
   -8.4013   -1.4836    0.1566 C   0  0
   -4.4244    2.8335   -0.2136 C   0  0
   -2.0866    3.1371   -0.2235 C   0  0
   -3.2785    3.6940   -0.2954 C   0  0
   -2.7827   -0.9207    1.3950 H   0  0
    3.6074    5.6693    0.1172 H   0  0
   -1.4057   -1.7591   -1.2502 H   0  0
   -1.6916  -10.2393   -0.8810 H   0  0
   -3.7557   -8.1631    1.3718 H   0  0
   -3.0347   -5.9826    1.4166 H   0  0
    0.6382   -6.1290   -0.8123 H   0  0
    1.3280    1.9615    0.5464 H   0  0
    3.6866   -1.4764   -0.4139 H   0  0
   -3.0912   -3.5787    1.2596 H   0  0
    0.5524   -3.5993   -1.0151 H   0  0
    1.6490   -2.8319   -0.4903 H   0  0
   -0.6467    0.6329    0.4954 H   0  0
   -5.7819    0.4704    1.1415 H   0  0
    5.0554    4.5868    0.0196 H   0  0
    5.1688   -0.3603    0.0452 H   0  0
   -8.0685   -3.4817   -0.8004 H   0  0
   -0.9688    1.2796    0.0209 H   0  0
   -5.1758    0.9021   -0.0220 H   0  0
   -8.3595    0.4048    1.0896 H   0  0
    7.2149    0.8990   -0.0374 H   0  0
    7.1571    3.4305    0.0681 H   0  0
   -9.4900   -1.5277    0.1280 H   0  0
   -5.4255    3.2606   -0.2718 H   0  0
   -1.1894    3.7519   -0.2953 H   0  0
   -3.3906    4.7718   -0.4131 H   0  0
  2  1  1  0
  3  4  1  0
  4 17  1  0
  5  2  2  0
  6 13  1  0
  7  1  1  0
  8  1  1  0
  9  6  2  0
 10  9  1  0
 11  6  1  0
 12 11  1  0
 13 16  2  0
 14  8  1  0
 15  7  1  0
 16 19  1  0
 17 28  2  0
 18  3  2  0
 19 29  2  0
 20 15  1  0
 21 15  1  0
 22  7  1  0
 23  4  1  0
 24  4  1  0
 25  3  1  0
 26  3  1  0
 27 31  2  0
 28 32  1  0
 29 34  1  0
 30 33  2  0
 31 21  1  0
 32 21  2  0
 33 20  1  0
 34 20  2  0
 35  8  2  0
 36 13  1  0
 37 16  1  0
 38 14  2  0
 39 22  2  0
 40 22  1  0
 41 35  1  0
 42 37  2  0
 43 42  1  0
 44 41  2  0
 45 40  2  0
 46 39  1  0
 47 45  1  0
  5 14  1  0
 38 44  1  0
 47 46  2  0
 17 27  1  0
 19 30  1  0
 36 43  2  0
 10 12  2  0
  7 48  1  0
 11 49  1  0
 15 50  1  0
 25 51  1  0
 26 52  1  0
 27 53  1  0
 28 54  1  0
 29 55  1  0
 30 56  1  0
 31 57  1  0
 32 58  1  0
 33 59  1  0
 34 60  1  0
 35 61  1  0
 36 62  1  0
 37 63  1  0
 38 64  1  0
 39 65  1  0
 40 66  1  0
 41 67  1  0
 42 68  1  0
 43 69  1  0
 44 70  1  0
 45 71  1  0
 46 72  1  0
 47 73  1  0
M  END
> <Name>
Molecule

> <Clean Energy>
139.548

> <From>
www.bindingDB.org

> <BindingDB Reactant_set_id>
50261748

> <Ligand InChI>
InChI=1S/C34H26F2N7O3P/c35-34(36,47(44,45)46)26-20-18-24(19-21-26)31(32(25-8-2-1-3-9-25)43-30-13-7-6-12-29(30)37-42-43)23-16-14-22(15-17-23)27-10-4-5-11-28(27)33-38-40-41-39-33/h1-21,31-32H,(H2,44,45,
46)(H,38,39,40,41)

> <Ligand InChI Key>
YJMPYOYPEFGAPW-UHFFFAOYSA-N

> <BindingDB MonomerID>
50142326

> <BindingDB Ligand Name>
CHEMBL276648::[(4-{2-Benzotriazol-1-yl-2-phenyl-1-[2'-(2H-tetrazol-5-yl)-biphenyl-4-yl]-ethyl}-phenyl)-difluoro-methyl]-phosphonic acid

> <Target Name>
Tyrosine-protein phosphatase non-receptor type 1

> <Target Source Organism According to Curator or DataSource>
Homo sapiens

> <IC50 (nM)>
370

> <Curation/DataSource>
ChEMBL

> <Article DOI>
10.1016/j.bmcl.2003.11.076

> <BindingDB Entry DOI>
10.7270/Q24M9404

> <PMID>
15013020

> <Authors>
Lau, CK; Bayly, CI; Gauthier, JY; Li, CS; Therien, M; Asante-Appiah, E; Cromlish, W; Boie, Y; Forghani, F; Desmarais, S; Wang, Q; Skorey, K; Waddleton, D; Payette, P; Ramachandran, C; Kennedy, BP; Sca
pin, G

> <Institution>
Merck Frosst Centre for Therapeutic Research

> <Link to Ligand in BindingDB>
http://www.bindingdb.org/bind/chemsearch/marvin/MolStructure.jsp?monomerid=50142326

> <Link to Ligand-Target Pair in BindingDB>
http://www.bindingdb.org/jsp/dbsearch/PrimarySearch_ki.jsp?energyterm=kJ/mole&tag=pol&polymerid=2622&target=Tyrosine-protein+phosphatase+non-receptor+type+1&column=ki&startPg=0&Increment=50&submit=Sea
rch
http://www.bindingdb.org/jsp/dbsearch/PrimarySearch_ki.jsp?energyterm=kJ/mole&tag=r21&monomerid=50142326&enzyme=Tyrosine-protein+phosphatase+non-receptor+type+1&column=ki&startPg=0&Increment=50&submit
=Search

> <PubChem CID of Ligand>
44265857

> <PubChem SID of Ligand>
104031717

> <ChEMBL ID of Ligand>
CHEMBL276648

> <ZINC ID of Ligand>
ZINC25989081

> <Number of Protein Chains in Target (bigger than 1 implies a multichain complex)>
1

> <BindingDB Target Chain Sequence>
MEMEKEFEQIDKSGSWAAIYQDIRHEASDFPCRVAKLPKNKNRNRYRDVSPFDHSRIKLHQEDNDYINASLIKMEEAQRSYILTQGPLPNTCGHFWEMVWEQKSRGVVMLNRVMEKGSLKCAQYWPQKEEKEMIFEDTNLKLTLISEDIKSYYTVRQLELENLTTQETREILHFHYTTWPDFGVPESPASFLNFLFKVRE
SGSLSPEHGPVVVHCSAGIGRSGTFCLADTCLLLMDKRKDPSSVDIKKVLLEMRKFRMGLIQTADQLRFSYLAVIEGAKFIMGDSSVQDQWKELSHEDLEPPPEHIPPPPRPPKRILEPHNGKCREFFPNHQWVKEETQEDKDCPIKEEKGSPLNAAPYGIESMSQDTEVRSRVVGGSLRGAQAASPAKGEPSLPEKDED
HALSYWKPFLVNMCVATVLTAGAYLCYRFLFNSNT

> <PDB ID(s) of Target Chain>
1BZJ,1G7G,1GFY,1JF7,1KAK,1KAV,1LQF,1NL9,1NNY,1NO6,1NZ7,1OEM,1OEO,1OES,1OET,1OEU,1OEV,1ONY,1ONZ,1PH0,1PXH,1PYN,1Q1M,1Q6J,1Q6M,1Q6N,1Q6P,1Q6S,1Q6T,1QXK,1SUG,1T48,1T49,1T4J,1WAX,1XBO,2AZR,2B07,2BGD,2BGE,
2CM2,2CM3,2CM7,2CM8,2CMA,2CMB,2CMC,2CNE,2CNF,2CNG,2CNH,2CNI,2F6T,2F6V,2F6W,2F6Y,2F6Z,2F70,2F71,2FJN,2H4G,2H4K,2HB1,2HNP,2HNQ,2QBP,2QBQ,2QBR,2QBS,2VEU,2VEV,2VEW,2VEX,2VEY,2ZMM,2ZN7,3A5J,3CWE,3D9C,3EAX,
3EB1,3EU0,3I7Z,3I80,3SME,4BJO,4I8N,4QBW,4Y14,5K9V,5K9W,5KA0,5KA1,5T19,6B90,6NTP,6W30,7KEY,7KLX,7LFO,7MN9,7MNA,8DU7,8G65,8G67,8G68,8G69,8G6A,8SKL

> <UniProt (SwissProt) Recommended Name of Target Chain>
Tyrosine-protein phosphatase non-receptor type 1

> <UniProt (SwissProt) Entry Name of Target Chain>
PTN1_HUMAN

> <UniProt (SwissProt) Primary ID of Target Chain>
P18031

> <UniProt (SwissProt) Secondary ID(s) of Target Chain>
Q5TGD8 Q9BQV9 Q9NQQ4

$$$$
Molecule
  SciTegic10242319433D

 71 75  0  0  0  0            999 V2000
   15.3431   -2.6428   -0.0005 N   0  0
    0.5327   -4.1721    0.0117 N   0  0
   14.4698   -3.7016   -0.0014 C   0  0
    1.8624   -4.7002    0.0094 C   0  0
   -0.2755   -5.1657    0.0058 C   0  0
    0.4016   -6.3382    0.0028 O   0  0
    1.7324   -6.0520    0.0085 C   0  0
   13.1593   -3.2173   -0.0017 N   0  0
   14.5089   -1.5278   -0.0003 C   0  0
   13.1717   -1.9110   -0.0010 O   0  0
   -6.1037   -4.8967   -0.0306 C   0  0
   10.6087   -3.3825   -0.0004 C   0  0
    9.5185   -4.1736    0.0019 C   0  0
   -1.7698   -5.0818   -0.0001 C   0  0
   11.9868   -4.0787   -0.0026 C   0  0
   -4.5903   -4.9630   -0.0184 C   0  0
    8.0928   -3.5241    0.0044 C   0  0
    3.1438   -3.7430    0.0166 C   0  0
   14.7944   -4.8949   -0.0019 O   0  0
   14.9104   -0.3585    0.0004 O   0  0
    2.7272   -7.1893    0.0005 C   0  0
    6.9497   -4.2296    0.0082 C   0  0
   -2.3910   -3.9017    0.0021 C   0  0
   -2.5746   -6.3201   -0.0111 C   0  0
   -3.9089   -6.2620   -0.0200 C   0  0
   -3.8692   -3.8408   -0.0074 C   0  0
   -6.5393   -4.7430    1.2701 F   0  0
   -6.6415   -6.0659   -0.5324 F   0  0
   -6.5264   -3.7889   -0.7376 F   0  0
    4.4307   -4.4134    0.0142 O   0  0
    5.6083   -3.5800    0.0105 C   0  0
    7.9841   -2.0555    0.0026 C   0  0
    9.8488   -5.7096    0.0022 C   0  0
    6.7866   -1.4580    0.0047 C   0  0
    2.2324   -8.4281   -0.0022 C   0  0
    4.1739   -7.0260    0.0017 C   0  0
    5.5376   -2.2508    0.0088 C   0  0
    8.7375   -6.7790    0.0020 C   0  0
    9.4166   -8.1617    0.0024 C   0  0
    8.3591   -9.2737    0.0027 C   0  0
    3.1232   -9.5929   -0.0075 C   0  0
    4.9879   -8.0750   -0.0037 C   0  0
    4.4414   -9.4215   -0.0078 C   0  0
   16.4128   -2.6681   -0.0001 H   0  0
   10.5217   -2.2960   -0.0008 H   0  0
   12.0395   -4.7073    0.8863 H   0  0
   12.0384   -4.7040   -0.8939 H   0  0
    3.0941   -3.1107   -0.8698 H   0  0
    3.0920   -3.1213    0.9104 H   0  0
    7.0052   -5.3182    0.0097 H   0  0
   -1.8086   -2.9803    0.0108 H   0  0
   -2.0757   -7.2892   -0.0120 H   0  0
   -4.4930   -7.1822   -0.0286 H   0  0
   -4.3719   -2.8736   -0.0054 H   0  0
    8.8892   -1.4482   -0.0004 H   0  0
   10.4508   -5.8934   -0.8877 H   0  0
   10.4502   -5.8932    0.8926 H   0  0
    6.7306   -0.3695    0.0033 H   0  0
    1.1526   -8.5764   -0.0003 H   0  0
    4.5976   -6.0217    0.0072 H   0  0
    4.5688   -1.7513    0.0103 H   0  0
    8.1176   -6.6700    0.8919 H   0  0
    8.1182   -6.6702   -0.8884 H   0  0
   10.0385   -8.2571   -0.8877 H   0  0
   10.0384   -8.2566    0.8926 H   0  0
    8.8529  -10.2454    0.0030 H   0  0
    7.7362   -9.1836   -0.8872 H   0  0
    7.7361   -9.1831    0.8925 H   0  0
    2.7044  -10.5992   -0.0113 H   0  0
    6.0676   -7.9259   -0.0051 H   0  0
    5.1074  -10.2845   -0.0111 H   0  0
  2  4  1  0
  3  1  1  0
  4 18  1  0
  5  2  2  0
  6  7  1  0
  7  4  2  0
  8  3  1  0
  9  1  1  0
 10  9  1  0
 11 16  1  0
 12 15  1  0
 13 12  2  0
 14  5  1  0
 15  8  1  0
 16 25  1  0
 17 13  1  0
 18 30  1  0
 19  3  2  0
 20  9  2  0
 21  7  1  0
 22 17  2  0
 23 14  2  0
 24 14  1  0
 25 24  2  0
 26 23  1  0
 27 11  1  0
 28 11  1  0
 29 11  1  0
 30 31  1  0
 31 22  1  0
 32 17  1  0
 33 13  1  0
 34 32  2  0
 35 21  2  0
 36 21  1  0
 37 34  1  0
 38 33  1  0
 39 38  1  0
 40 39  1  0
 41 35  1  0
 42 36  2  0
 43 42  1  0
  8 10  1  0
 37 31  2  0
  6  5  1  0
 43 41  2  0
 16 26  2  0
  1 44  1  0
 12 45  1  0
 15 46  1  0
 15 47  1  0
 18 48  1  0
 18 49  1  0
 22 50  1  0
 23 51  1  0
 24 52  1  0
 25 53  1  0
 26 54  1  0
 32 55  1  0
 33 56  1  0
 33 57  1  0
 34 58  1  0
 35 59  1  0
 36 60  1  0
 37 61  1  0
 38 62  1  0
 38 63  1  0
 39 64  1  0
 39 65  1  0
 40 66  1  0
 40 67  1  0
 40 68  1  0
 41 69  1  0
 42 70  1  0
 43 71  1  0
M  END
> <Name>
Molecule

> <Clean Energy>
66.4696

> <From>
www.bindingDB.org

> <BindingDB Reactant_set_id>
50152953

> <Ligand InChI>
InChI=1S/C32H28F3N3O5/c1-2-3-8-21(17-18-38-30(39)37-31(40)43-38)24-11-7-12-26(19-24)41-20-27-28(22-9-5-4-6-10-22)42-29(36-27)23-13-15-25(16-14-23)32(33,34)35/h4-7,9-17,19H,2-3,8,18,20H2,1H3,(H,37,39,4
0)/b21-17+

> <Ligand InChI Key>
JSJNHKLVZUNIDQ-HEHNFIMWSA-N

> <BindingDB MonomerID>
50085943

> <BindingDB Ligand Name>
2-(3-{3-[5-Phenyl-2-(4-trifluoromethyl-phenyl)-oxazol-4-ylmethoxy]-phenyl}-hept-2-enyl)-[1,2,4]oxadiazolidine-3,5-dione::CHEMBL7152

> <Target Name>
Tyrosine-protein phosphatase non-receptor type 1

> <Target Source Organism According to Curator or DataSource>
Homo sapiens

> <IC50 (nM)>
370

> <Curation/DataSource>
ChEMBL

> <Article DOI>
10.1021/jm990476x

> <BindingDB Entry DOI>
10.7270/Q2H70F1H

> <PMID>
10715163

> <Authors>
Malamas, MS; Sredy, J; Gunawan, I; Mihan, B; Sawicki, DR; Seestaller, L; Sullivan, D; Flam, BR

> <Institution>
Wyeth-Ayerst Research

> <Link to Ligand in BindingDB>
http://www.bindingdb.org/bind/chemsearch/marvin/MolStructure.jsp?monomerid=50085943

> <Link to Ligand-Target Pair in BindingDB>
http://www.bindingdb.org/jsp/dbsearch/PrimarySearch_ki.jsp?energyterm=kJ/mole&tag=pol&polymerid=2622&target=Tyrosine-protein+phosphatase+non-receptor+type+1&column=ki&startPg=0&Increment=50&submit=Sea
rch
http://www.bindingdb.org/jsp/dbsearch/PrimarySearch_ki.jsp?energyterm=kJ/mole&tag=r21&monomerid=50085943&enzyme=Tyrosine-protein+phosphatase+non-receptor+type+1&column=ki&startPg=0&Increment=50&submit
=Search

> <PubChem CID of Ligand>
10674946

> <PubChem SID of Ligand>
103985353

> <ChEMBL ID of Ligand>
CHEMBL7152

> <ZINC ID of Ligand>
ZINC25970524

> <Number of Protein Chains in Target (bigger than 1 implies a multichain complex)>
1

> <BindingDB Target Chain Sequence>
MEMEKEFEQIDKSGSWAAIYQDIRHEASDFPCRVAKLPKNKNRNRYRDVSPFDHSRIKLHQEDNDYINASLIKMEEAQRSYILTQGPLPNTCGHFWEMVWEQKSRGVVMLNRVMEKGSLKCAQYWPQKEEKEMIFEDTNLKLTLISEDIKSYYTVRQLELENLTTQETREILHFHYTTWPDFGVPESPASFLNFLFKVRE
SGSLSPEHGPVVVHCSAGIGRSGTFCLADTCLLLMDKRKDPSSVDIKKVLLEMRKFRMGLIQTADQLRFSYLAVIEGAKFIMGDSSVQDQWKELSHEDLEPPPEHIPPPPRPPKRILEPHNGKCREFFPNHQWVKEETQEDKDCPIKEEKGSPLNAAPYGIESMSQDTEVRSRVVGGSLRGAQAASPAKGEPSLPEKDED
HALSYWKPFLVNMCVATVLTAGAYLCYRFLFNSNT

> <PDB ID(s) of Target Chain>
1BZJ,1G7G,1GFY,1JF7,1KAK,1KAV,1LQF,1NL9,1NNY,1NO6,1NZ7,1OEM,1OEO,1OES,1OET,1OEU,1OEV,1ONY,1ONZ,1PH0,1PXH,1PYN,1Q1M,1Q6J,1Q6M,1Q6N,1Q6P,1Q6S,1Q6T,1QXK,1SUG,1T48,1T49,1T4J,1WAX,1XBO,2AZR,2B07,2BGD,2BGE,
2CM2,2CM3,2CM7,2CM8,2CMA,2CMB,2CMC,2CNE,2CNF,2CNG,2CNH,2CNI,2F6T,2F6V,2F6W,2F6Y,2F6Z,2F70,2F71,2FJN,2H4G,2H4K,2HB1,2HNP,2HNQ,2QBP,2QBQ,2QBR,2QBS,2VEU,2VEV,2VEW,2VEX,2VEY,2ZMM,2ZN7,3A5J,3CWE,3D9C,3EAX,
3EB1,3EU0,3I7Z,3I80,3SME,4BJO,4I8N,4QBW,4Y14,5K9V,5K9W,5KA0,5KA1,5T19,6B90,6NTP,6W30,7KEY,7KLX,7LFO,7MN9,7MNA,8DU7,8G65,8G67,8G68,8G69,8G6A,8SKL

> <UniProt (SwissProt) Recommended Name of Target Chain>
Tyrosine-protein phosphatase non-receptor type 1

> <UniProt (SwissProt) Entry Name of Target Chain>
PTN1_HUMAN

> <UniProt (SwissProt) Primary ID of Target Chain>
P18031

> <UniProt (SwissProt) Secondary ID(s) of Target Chain>
Q5TGD8 Q9BQV9 Q9NQQ4

$$$$
Molecule
  SciTegic10242319433D

 66 70  0  0  0  0            999 V2000
    0.6171   -1.6932   -0.0648 C   0  0
   -0.1353   -2.8366   -0.1101 C   0  0
   -1.5071   -2.5413   -0.0580 O   0  0
   -0.3584   -0.6283   -0.0012 C   0  0
   -1.6243   -1.2010   -0.0053 C   0  0
    6.4913   -5.2155    0.1321 C   0  0
    5.5305   -4.3066    0.0908 C   0  0
    7.8644   -4.8573   -0.1355 C   0  0
    8.8169   -5.9281   -0.0055 O   0  0
   10.2482   -5.7438   -0.2352 C   0  0  2  0  0  0
   10.8242   -7.1351    0.0330 C   0  0
    5.8026   -2.9349   -0.2390 C   0  0
    2.2116   -1.3659   -0.0983 C   0  0
    4.2041   -4.6938    0.3846 C   0  0
    4.6623   -1.9748   -0.2914 C   0  0
    3.4159   -2.3996   -0.0170 C   0  0
   10.9559   -4.6184    0.6281 C   0  0
    8.1474   -3.5852   -0.4531 C   0  0
   10.1744   -8.1301   -0.3079 O   0  0
    7.0573   -2.5694   -0.5119 C   0  0
    6.0558   -7.0168    0.5520 Br  0  0
    3.2322   -3.7972    0.3462 C   0  0
   11.9812   -7.3080    0.7873 O   0  0
   12.4160   -4.2903    0.2515 C   0  0
    0.3369   -4.2377   -0.2166 C   0  0
   -0.1651    0.6840    0.0386 C   0  0
   -2.7399   -0.4831    0.0299 C   0  0
   13.1498   -5.0696   -0.5477 C   0  0
   13.0065   -3.0530    0.7724 C   0  0
   -0.7173   -5.3166   -0.0370 C   0  0
    0.0649   -6.6504   -0.1126 C   0  0
   -1.3754    1.5424    0.0829 C   0  0
   -2.5970    0.9868    0.0778 C   0  0
   -0.8710   -7.8502    0.0649 C   0  0
   14.2570   -2.7169    0.4588 C   0  0
   14.5294   -4.7112   -0.8797 C   0  0
   15.0577   -3.5878   -0.4010 C   0  0
   10.3974   -5.5099   -1.2893 H   0  0
    2.3660   -0.8328   -1.0364 H   0  0
    2.3729   -0.6854    0.7378 H   0  0
    3.9818   -5.7293    0.6425 H   0  0
    4.8387   -0.9310   -0.5515 H   0  0
   10.3722   -3.7036    0.5251 H   0  0
   10.9453   -4.9415    1.6690 H   0  0
    9.1754   -3.2936   -0.6684 H   0  0
    7.2831   -1.5362   -0.7758 H   0  0
    2.2259   -4.1272    0.6039 H   0  0
   12.7785   -6.8030    0.3270 H   0  0
    0.7783   -4.3654   -1.2050 H   0  0
    1.1012   -4.3897    0.5456 H   0  0
    0.8372    1.1124    0.0386 H   0  0
   -3.7210   -0.9581    0.0238 H   0  0
   12.7164   -5.9821   -0.9570 H   0  0
   12.4181   -2.4037    1.4207 H   0  0
   -1.2100   -5.2148    0.9299 H   0  0
   -1.4613   -5.2624   -0.8319 H   0  0
    0.5541   -6.7214   -1.0841 H   0  0
    0.8175   -6.6666    0.6758 H   0  0
   -1.2717    2.6268    0.1198 H   0  0
   -3.4838    1.6199    0.1088 H   0  0
   -0.2942   -8.7733    0.0073 H   0  0
   -1.6245   -7.8435   -0.7228 H   0  0
   -1.3612   -7.7887    1.0365 H   0  0
   14.6842   -1.7910    0.8438 H   0  0
   15.1238   -5.3643   -1.5187 H   0  0
   16.0841   -3.3174   -0.6489 H   0  0
  2  1  2  0
  3  2  1  0
  4  1  1  0
  5  4  1  0
  6  7  2  0
  7 14  1  0
  8  6  1  0
  9  8  1  0
 10  9  1  0
 11 10  1  0
 12 15  1  0
 13  1  1  0
 14 22  2  0
 15 16  2  0
 16 13  1  0
 17 10  1  0
 18 20  1  0
 19 11  2  0
 20 12  2  0
 21  6  1  0
 22 16  1  0
 23 11  1  0
 24 17  1  0
 25  2  1  0
 26  4  2  0
 27  5  2  0
 28 24  2  0
 29 24  1  0
 30 25  1  0
 31 30  1  0
 32 26  1  0
 33 32  2  0
 34 31  1  0
 35 29  2  0
 36 28  1  0
 37 35  1  0
  5  3  1  0
 12  7  1  0
 33 27  1  0
  8 18  2  0
 36 37  2  0
 10 38  1  0
 13 39  1  0
 13 40  1  0
 14 41  1  0
 15 42  1  0
 17 43  1  0
 17 44  1  0
 18 45  1  0
 20 46  1  0
 22 47  1  0
 23 48  1  0
 25 49  1  0
 25 50  1  0
 26 51  1  0
 27 52  1  0
 28 53  1  0
 29 54  1  0
 30 55  1  0
 30 56  1  0
 31 57  1  0
 31 58  1  0
 32 59  1  0
 33 60  1  0
 34 61  1  0
 34 62  1  0
 34 63  1  0
 35 64  1  0
 36 65  1  0
 37 66  1  0
M  END
> <Name>
Molecule

> <Clean Energy>
54.2139

> <From>
www.bindingDB.org

> <BindingDB Reactant_set_id>
50154647

> <Ligand InChI>
InChI=1S/C32H29BrO4/c1-2-3-12-28-26(25-11-7-8-13-27(25)36-28)19-22-14-16-24-23(18-22)15-17-29(31(24)33)37-30(32(34)35)20-21-9-5-4-6-10-21/h4-11,13-18,30H,2-3,12,19-20H2,1H3,(H,34,35)

> <Ligand InChI Key>
YRONWOJBSAGSMV-UHFFFAOYSA-N

> <BindingDB MonomerID>
50086960

> <BindingDB Ligand Name>
2-[1-Bromo-6-(2-butyl-benzofuran-3-ylmethyl)-naphthalen-2-yloxy]-3-phenyl-propionic acid::CHEMBL25243

> <Target Name>
Tyrosine-protein phosphatase non-receptor type 1

> <Target Source Organism According to Curator or DataSource>
Homo sapiens

> <IC50 (nM)>
370

> <Curation/DataSource>
ChEMBL

> <Article DOI>
10.1021/jm990560c

> <BindingDB Entry DOI>
10.7270/Q2W958FT

> <PMID>
10753467

> <Authors>
Malamas, MS; Sredy, J; Moxham, C; Katz, A; Xu, W; McDevitt, R; Adebayo, FO; Sawicki, DR; Seestaller, L; Sullivan, D; Taylor, JR

> <Institution>
Wyeth-Ayerst Research

> <Link to Ligand in BindingDB>
http://www.bindingdb.org/bind/chemsearch/marvin/MolStructure.jsp?monomerid=50086960

> <Link to Ligand-Target Pair in BindingDB>
http://www.bindingdb.org/jsp/dbsearch/PrimarySearch_ki.jsp?energyterm=kJ/mole&tag=pol&polymerid=2622&target=Tyrosine-protein+phosphatase+non-receptor+type+1&column=ki&startPg=0&Increment=50&submit=Sea
rch
http://www.bindingdb.org/jsp/dbsearch/PrimarySearch_ki.jsp?energyterm=kJ/mole&tag=r21&monomerid=50086960&enzyme=Tyrosine-protein+phosphatase+non-receptor+type+1&column=ki&startPg=0&Increment=50&submit
=Search

> <PubChem CID of Ligand>
9829174

> <PubChem SID of Ligand>
103986071

> <ChEMBL ID of Ligand>
CHEMBL25243

> <ZINC ID of Ligand>
ZINC14128318

> <Number of Protein Chains in Target (bigger than 1 implies a multichain complex)>
1

> <BindingDB Target Chain Sequence>
MEMEKEFEQIDKSGSWAAIYQDIRHEASDFPCRVAKLPKNKNRNRYRDVSPFDHSRIKLHQEDNDYINASLIKMEEAQRSYILTQGPLPNTCGHFWEMVWEQKSRGVVMLNRVMEKGSLKCAQYWPQKEEKEMIFEDTNLKLTLISEDIKSYYTVRQLELENLTTQETREILHFHYTTWPDFGVPESPASFLNFLFKVRE
SGSLSPEHGPVVVHCSAGIGRSGTFCLADTCLLLMDKRKDPSSVDIKKVLLEMRKFRMGLIQTADQLRFSYLAVIEGAKFIMGDSSVQDQWKELSHEDLEPPPEHIPPPPRPPKRILEPHNGKCREFFPNHQWVKEETQEDKDCPIKEEKGSPLNAAPYGIESMSQDTEVRSRVVGGSLRGAQAASPAKGEPSLPEKDED
HALSYWKPFLVNMCVATVLTAGAYLCYRFLFNSNT

> <PDB ID(s) of Target Chain>
1BZJ,1G7G,1GFY,1JF7,1KAK,1KAV,1LQF,1NL9,1NNY,1NO6,1NZ7,1OEM,1OEO,1OES,1OET,1OEU,1OEV,1ONY,1ONZ,1PH0,1PXH,1PYN,1Q1M,1Q6J,1Q6M,1Q6N,1Q6P,1Q6S,1Q6T,1QXK,1SUG,1T48,1T49,1T4J,1WAX,1XBO,2AZR,2B07,2BGD,2BGE,
2CM2,2CM3,2CM7,2CM8,2CMA,2CMB,2CMC,2CNE,2CNF,2CNG,2CNH,2CNI,2F6T,2F6V,2F6W,2F6Y,2F6Z,2F70,2F71,2FJN,2H4G,2H4K,2HB1,2HNP,2HNQ,2QBP,2QBQ,2QBR,2QBS,2VEU,2VEV,2VEW,2VEX,2VEY,2ZMM,2ZN7,3A5J,3CWE,3D9C,3EAX,
3EB1,3EU0,3I7Z,3I80,3SME,4BJO,4I8N,4QBW,4Y14,5K9V,5K9W,5KA0,5KA1,5T19,6B90,6NTP,6W30,7KEY,7KLX,7LFO,7MN9,7MNA,8DU7,8G65,8G67,8G68,8G69,8G6A,8SKL

> <UniProt (SwissProt) Recommended Name of Target Chain>
Tyrosine-protein phosphatase non-receptor type 1

> <UniProt (SwissProt) Entry Name of Target Chain>
PTN1_HUMAN

> <UniProt (SwissProt) Primary ID of Target Chain>
P18031

> <UniProt (SwissProt) Secondary ID(s) of Target Chain>
Q5TGD8 Q9BQV9 Q9NQQ4

$$$$
Molecule
  SciTegic10242319433D

 56 57  0  0  0  0            999 V2000
   18.9794   -4.3083    0.5848 O   0  0
   18.7191   -3.1359   -0.2714 C   0  0  1  0  0  0
   17.4590   -2.3553    0.2122 C   0  0
   16.0467   -4.5247   -0.2433 C   0  0
   16.1347   -3.1097    0.1448 C   0  0
   15.0152   -2.4354    0.4069 C   0  0
   13.7039   -3.0846    0.3089 C   0  0
   13.6084   -4.3649   -0.0481 C   0  0
   14.8512   -5.1184   -0.3332 C   0  0
   19.8731   -2.1475   -0.2560 C   0  0
   20.8913   -2.3550   -0.9275 O   0  0
   19.7310   -0.9381    0.4158 O   0  0
   12.3332   -5.0297   -0.1893 N   0  0
   11.1203   -4.4703    0.0322 C   0  0
    9.8691   -5.3021   -0.2025 C   0  0
   10.9965   -3.2963    0.4001 O   0  0
    8.5922   -4.5095    0.1990 C   0  0
    7.3161   -5.3291   -0.1538 C   0  0
    6.0490   -4.5671    0.3159 C   0  0
    4.7618   -5.3123   -0.1304 C   0  0  2  0  0  0
    3.4509   -4.6187    0.3577 C   0  0
    2.2567   -5.4985   -0.2041 C   0  0
    2.6611   -7.2236    0.2039 S   0  0
    4.6530   -6.9626    0.5650 S   0  0
   20.1143   -5.1158    0.1302 C   0  0
   21.4330   -4.8027    0.9021 C   0  0
   22.5952   -5.6150    0.2946 C   0  0
   18.5555   -3.4738   -1.2948 H   0  0
   17.3644   -1.4613   -0.4042 H   0  0
   17.6247   -2.0659    1.2499 H   0  0
   16.9541   -5.0894   -0.4576 H   0  0
   15.0751   -1.3868    0.6980 H   0  0
   12.8008   -2.5157    0.5297 H   0  0
   14.7911   -6.1684   -0.6195 H   0  0
   18.9336   -0.3970   -0.0014 H   0  0
   12.3488   -6.0546   -0.4961 H   0  0
    9.8084   -5.5650   -1.2586 H   0  0
    9.9276   -6.2112    0.3960 H   0  0
    8.6108   -4.3168    1.2717 H   0  0
    8.5721   -3.5626   -0.3405 H   0  0
    7.2690   -5.4769   -1.2327 H   0  0
    7.3601   -6.2975    0.3445 H   0  0
    6.0597   -4.4919    1.4033 H   0  0
    6.0518   -3.5672   -0.1180 H   0  0
    4.7468   -5.3807   -1.2182 H   0  0
    3.4205   -4.5901    1.4469 H   0  0
    3.3908   -3.6036   -0.0347 H   0  0
    1.3187   -5.2084    0.2693 H   0  0
    2.1725   -5.3755   -1.2839 H   0  0
   19.8703   -6.1686    0.2723 H   0  0
   20.2774   -4.9199   -0.9296 H   0  0
   21.6549   -3.7384    0.8237 H   0  0
   21.3117   -5.0727    1.9511 H   0  0
   23.5152   -5.3944    0.8357 H   0  0
   22.7179   -5.3457   -0.7545 H   0  0
   22.3748   -6.6797    0.3726 H   0  0
  6  7  1  0
 13 14  1  0
 14 15  1  0
  7  8  2  0
 14 16  2  0
  5  3  1  0
 15 17  1  0
  8  9  1  0
 17 18  1  0
  9  4  2  0
 18 19  1  0
  4  5  1  0
 20 19  1  0
 20 21  1  0
  2 10  1  0
  2  1  1  0
 10 11  2  0
  5  6  2  0
 21 22  1  0
 22 23  1  0
 23 24  1  0
 20 24  1  0
 10 12  1  0
  1 25  1  0
  2  3  1  0
 25 26  1  0
  8 13  1  0
 26 27  1  0
  2 28  1  0
  3 29  1  0
  3 30  1  0
  4 31  1  0
  6 32  1  0
  7 33  1  0
  9 34  1  0
 12 35  1  0
 13 36  1  0
 15 37  1  0
 15 38  1  0
 17 39  1  0
 17 40  1  0
 18 41  1  0
 18 42  1  0
 19 43  1  0
 19 44  1  0
 20 45  1  0
 21 46  1  0
 21 47  1  0
 22 48  1  0
 22 49  1  0
 25 50  1  0
 25 51  1  0
 26 52  1  0
 26 53  1  0
 27 54  1  0
 27 55  1  0
 27 56  1  0
M  END
> <Name>
Molecule

> <Clean Energy>
34.6007

> <From>
www.bindingDB.org

> <BindingDB Reactant_set_id>
50513473

> <Ligand InChI>
InChI=1S/C20H29NO4S2/c1-2-12-25-18(20(23)24)14-15-7-9-16(10-8-15)21-19(22)6-4-3-5-17-11-13-26-27-17/h7-10,17-18H,2-6,11-14H2,1H3,(H,21,22)(H,23,24)/t17-,18+/m1/s1

> <Ligand InChI Key>
MVIULGKBESUZEE-MSOLQXFVSA-N

> <BindingDB MonomerID>
50296392

> <BindingDB Ligand Name>
(2S)-3-(4-{4-[(3R)-1,2-Dithiolan-3-yl]butylcarboxamido}phenyl)-2-propoxypropanoic acid::CHEMBL562392

> <Target Name>
Tyrosine-protein phosphatase non-receptor type 1

> <Target Source Organism According to Curator or DataSource>
Homo sapiens

> <IC50 (nM)>
373.7

> <Curation/DataSource>
ChEMBL

> <Article DOI>
10.1016/j.ejmech.2009.03.009

> <BindingDB Entry DOI>
10.7270/Q2FJ2GTG

> <PMID>
19349096

> <Authors>
Lakshminarayana, N; Rajendra Prasad, Y; Gharat, L; Thomas, A; Ravikumar, P; Narayanan, S; Srinivasan, CV; Gopalan, B

> <Institution>
Glenmark Research Center

> <Link to Ligand in BindingDB>
http://www.bindingdb.org/bind/chemsearch/marvin/MolStructure.jsp?monomerid=50296392

> <Link to Ligand-Target Pair in BindingDB>
http://www.bindingdb.org/jsp/dbsearch/PrimarySearch_ki.jsp?energyterm=kJ/mole&tag=pol&polymerid=2622&target=Tyrosine-protein+phosphatase+non-receptor+type+1&column=ki&startPg=0&Increment=50&submit=Sea
rch
http://www.bindingdb.org/jsp/dbsearch/PrimarySearch_ki.jsp?energyterm=kJ/mole&tag=r21&monomerid=50296392&enzyme=Tyrosine-protein+phosphatase+non-receptor+type+1&column=ki&startPg=0&Increment=50&submit
=Search

> <PubChem CID of Ligand>
44140191

> <PubChem SID of Ligand>
104137923

> <ChEMBL ID of Ligand>
CHEMBL562392

> <KEGG ID of Ligand>
C02051

> <ZINC ID of Ligand>
ZINC43121342

> <Number of Protein Chains in Target (bigger than 1 implies a multichain complex)>
1

> <BindingDB Target Chain Sequence>
MEMEKEFEQIDKSGSWAAIYQDIRHEASDFPCRVAKLPKNKNRNRYRDVSPFDHSRIKLHQEDNDYINASLIKMEEAQRSYILTQGPLPNTCGHFWEMVWEQKSRGVVMLNRVMEKGSLKCAQYWPQKEEKEMIFEDTNLKLTLISEDIKSYYTVRQLELENLTTQETREILHFHYTTWPDFGVPESPASFLNFLFKVRE
SGSLSPEHGPVVVHCSAGIGRSGTFCLADTCLLLMDKRKDPSSVDIKKVLLEMRKFRMGLIQTADQLRFSYLAVIEGAKFIMGDSSVQDQWKELSHEDLEPPPEHIPPPPRPPKRILEPHNGKCREFFPNHQWVKEETQEDKDCPIKEEKGSPLNAAPYGIESMSQDTEVRSRVVGGSLRGAQAASPAKGEPSLPEKDED
HALSYWKPFLVNMCVATVLTAGAYLCYRFLFNSNT

> <PDB ID(s) of Target Chain>
1BZJ,1G7G,1GFY,1JF7,1KAK,1KAV,1LQF,1NL9,1NNY,1NO6,1NZ7,1OEM,1OEO,1OES,1OET,1OEU,1OEV,1ONY,1ONZ,1PH0,1PXH,1PYN,1Q1M,1Q6J,1Q6M,1Q6N,1Q6P,1Q6S,1Q6T,1QXK,1SUG,1T48,1T49,1T4J,1WAX,1XBO,2AZR,2B07,2BGD,2BGE,
2CM2,2CM3,2CM7,2CM8,2CMA,2CMB,2CMC,2CNE,2CNF,2CNG,2CNH,2CNI,2F6T,2F6V,2F6W,2F6Y,2F6Z,2F70,2F71,2FJN,2H4G,2H4K,2HB1,2HNP,2HNQ,2QBP,2QBQ,2QBR,2QBS,2VEU,2VEV,2VEW,2VEX,2VEY,2ZMM,2ZN7,3A5J,3CWE,3D9C,3EAX,
3EB1,3EU0,3I7Z,3I80,3SME,4BJO,4I8N,4QBW,4Y14,5K9V,5K9W,5KA0,5KA1,5T19,6B90,6NTP,6W30,7KEY,7KLX,7LFO,7MN9,7MNA,8DU7,8G65,8G67,8G68,8G69,8G6A,8SKL

> <UniProt (SwissProt) Recommended Name of Target Chain>
Tyrosine-protein phosphatase non-receptor type 1

> <UniProt (SwissProt) Entry Name of Target Chain>
PTN1_HUMAN

> <UniProt (SwissProt) Primary ID of Target Chain>
P18031

> <UniProt (SwissProt) Secondary ID(s) of Target Chain>
Q5TGD8 Q9BQV9 Q9NQQ4

$$$$
Molecule
  SciTegic10242319433D

116124  0  0  0  0            999 V2000
   10.6642   -3.4794    0.0796 C   0  0
   10.6068   -5.0869    0.4576 P   0  0
   11.0516   -5.2681    1.7515 O   0  0
   15.3397  -14.6696   -0.0344 C   0  0
   16.9542  -14.7448   -0.3764 P   0  0
   17.1515  -14.3993   -1.6978 O   0  0
   26.4422   -9.8656    0.0427 C   0  0
   26.5183   -8.2486    0.3679 P   0  0
   26.1233   -8.0247    1.6714 O   0  0
   21.7434    1.3581   -0.0287 C   0  0
   20.1266    1.4103   -0.3693 P   0  0
   19.9315    1.0394   -1.6844 O   0  0
   13.6289   -7.5143   -0.4303 C   0  0
   14.9388   -7.6541   -0.2429 C   0  0
   15.7669   -6.4193    0.0010 C   0  0
   15.1686   -5.2115   -0.0094 C   0  0
   13.7223   -5.1470   -0.1982 C   0  0
   12.9849   -6.2245   -0.3956 C   0  0
   21.9874   -8.1744    0.0471 C   0  0
   23.2964   -8.2677   -0.1716 C   0  0
   24.1122   -7.1150   -0.4304 C   0  0
   23.5378   -5.9198   -0.4736 C   0  0
   22.1055   -5.7369   -0.2247 C   0  0
   21.3596   -6.8202    0.0644 C   0  0
   17.7185   -1.6962    0.4052 C   0  0
   17.5902   -3.0027    0.1740 C   0  0
   18.8139   -3.8045   -0.0778 C   0  0
   20.0194   -3.2212   -0.0354 C   0  0
   20.0998   -1.7754    0.2017 C   0  0
   19.0171   -1.0402    0.4000 C   0  0
   21.5719   -4.0376   -0.2610 S   0  0
   15.9293   -3.6195    0.2128 S   0  0
   15.4978   -9.3368   -0.3030 S   0  0
   17.0459  -10.1557   -0.0743 C   0  0
   16.9505  -11.4712    0.1169 C   0  0
   18.1042  -12.2936    0.3710 C   0  0
   19.2963  -11.7131    0.4376 C   0  0
   19.4781  -10.2729    0.2130 C   0  0
   18.3977   -9.5193   -0.0533 C   0  0
   21.1671   -9.7272    0.2764 S   0  0
   17.0653   -6.5273    0.2279 O   0  0
   18.7120   -5.0791   -0.3624 O   0  0
   18.5242   -8.2286   -0.3236 O   0  0
   20.0805   -6.7036    0.3769 O   0  0
   19.0543    0.4876    0.5973 C   0  0
   19.7141    2.8967   -0.2150 O   0  0
   25.6323   -7.1843   -0.6320 C   0  0
   28.0114   -7.8604    0.2264 O   0  0
   18.0395  -13.8222    0.5718 C   0  0
   17.3497  -16.2332   -0.1967 O   0  0
   11.4597   -6.1797   -0.5382 C   0  0
    9.1120   -5.4857    0.3830 O   0  0
   11.7903   -2.7694    0.1070 C   0  0
   11.7763   -1.3387   -0.2015 C   0  0
   10.6280   -0.7313   -0.4907 C   0  0
    9.3838   -1.4977   -0.5049 C   0  0
    9.4020   -2.8020   -0.2376 C   0  0
   22.4427    0.2264    0.0004 C   0  0
   23.8811    0.2467    0.2754 C   0  0
   24.5046    1.4047    0.4811 C   0  0
   23.7493    2.6546    0.4364 C   0  0
   22.4394    2.6322    0.1971 C   0  0
   25.3139  -10.5668    0.1207 C   0  0
   25.3106  -12.0059   -0.1448 C   0  0
   26.4469  -12.6296   -0.4463 C   0  0
   27.6949  -11.8725   -0.5163 C   0  0
   27.6917  -10.5607   -0.2874 C   0  0
   14.6556  -13.5293   -0.0105 C   0  0
   13.2172  -13.5290    0.2647 C   0  0
   12.5782  -14.6774    0.4759 C   0  0
   13.3169  -15.9374    0.4375 C   0  0
   14.6269  -15.9335    0.1981 C   0  0
   13.0240   -8.4020   -0.6157 H   0  0
   13.2330   -4.1732   -0.1754 H   0  0
   23.7649   -9.2517   -0.1537 H   0  0
   24.1501   -5.0473   -0.7013 H   0  0
   16.8259   -1.1030    0.6036 H   0  0
   21.0775   -1.2937    0.2147 H   0  0
   15.9669  -11.9395    0.0797 H   0  0
   20.1686  -12.3253    0.6665 H   0  0
   17.2238   -7.1116    1.0858 H   0  0
   18.2392   -5.5787    0.4310 H   0  0
   18.9697   -7.7415    0.4929 H   0  0
   19.9822   -6.1050    1.2339 H   0  0
   18.0480    0.8611    0.4078 H   0  0
   19.3205    0.6713    1.6382 H   0  0
   19.9079    3.2140    0.7670 H   0  0
   25.8103   -7.4842   -1.6647 H   0  0
   26.0280   -6.1815   -0.4710 H   0  0
   28.5839   -8.4140    0.9108 H   0  0
   19.0396  -14.2109    0.3795 H   0  0
   17.7764  -13.9951    1.6153 H   0  0
   17.1538  -16.5311    0.7909 H   0  0
   11.2362   -5.9209   -1.5731 H   0  0
   11.0824   -7.1796   -0.3236 H   0  0
    8.5618   -4.9134    1.0703 H   0  0
   12.7308   -3.2579    0.3614 H   0  0
   12.7066   -0.7706   -0.1943 H   0  0
   10.6156    0.3350   -0.7164 H   0  0
    8.4407   -1.0016   -0.7344 H   0  0
    8.4722   -3.3707   -0.2545 H   0  0
   21.9408   -0.7239   -0.1821 H   0  0
   24.4416   -0.6874    0.3118 H   0  0
   25.5757    1.4203    0.6822 H   0  0
   24.2577    3.6049    0.5988 H   0  0
   21.8791    3.5668    0.1686 H   0  0
   24.3833  -10.0645    0.3849 H   0  0
   24.3774  -12.5670   -0.0956 H   0  0
   26.4467  -13.7021   -0.6406 H   0  0
   28.6284  -12.3816   -0.7559 H   0  0
   28.6241   -9.9991   -0.3455 H   0  0
   15.1700  -12.5866   -0.1974 H   0  0
   12.6692  -12.5873    0.2967 H   0  0
   11.5069  -14.6778    0.6769 H   0  0
   12.7960  -16.8801    0.6049 H   0  0
   15.1749  -16.8754    0.1743 H   0  0
  2  1  1  0
  3  2  2  0
  5  4  1  0
  6  5  2  0
  8  7  1  0
  9  8  2  0
 11 10  1  0
 12 11  2  0
 13 14  2  0
 14 15  1  0
 15 16  2  0
 16 17  1  0
 17 18  2  0
 18 13  1  0
 19 20  2  0
 20 21  1  0
 21 22  2  0
 22 23  1  0
 23 24  2  0
 24 19  1  0
 25 26  2  0
 26 27  1  0
 27 28  2  0
 28 29  1  0
 29 30  2  0
 30 25  1  0
 28 31  1  0
 31 23  1  0
 26 32  1  0
 32 16  1  0
 14 33  1  0
 33 34  1  0
 34 35  2  0
 35 36  1  0
 36 37  2  0
 37 38  1  0
 38 39  2  0
 39 34  1  0
 38 40  1  0
 40 19  1  0
 15 41  1  0
 27 42  1  0
 39 43  1  0
 24 44  1  0
 30 45  1  0
 45 11  1  0
 11 46  1  0
 21 47  1  0
 47  8  1  0
  8 48  1  0
 36 49  1  0
 49  5  1  0
  5 50  1  0
 18 51  1  0
 51  2  1  0
  2 52  1  0
  1 53  2  0
 53 54  1  0
 54 55  2  0
 55 56  1  0
 56 57  2  0
 57  1  1  0
 10 58  2  0
 58 59  1  0
 59 60  2  0
 60 61  1  0
 61 62  2  0
 62 10  1  0
  7 63  2  0
 63 64  1  0
 64 65  2  0
 65 66  1  0
 66 67  2  0
 67  7  1  0
  4 68  2  0
 68 69  1  0
 69 70  2  0
 70 71  1  0
 71 72  2  0
 72  4  1  0
 13 73  1  0
 17 74  1  0
 20 75  1  0
 22 76  1  0
 25 77  1  0
 29 78  1  0
 35 79  1  0
 37 80  1  0
 41 81  1  0
 42 82  1  0
 43 83  1  0
 44 84  1  0
 45 85  1  0
 45 86  1  0
 46 87  1  0
 47 88  1  0
 47 89  1  0
 48 90  1  0
 49 91  1  0
 49 92  1  0
 50 93  1  0
 51 94  1  0
 51 95  1  0
 52 96  1  0
 53 97  1  0
 54 98  1  0
 55 99  1  0
 56100  1  0
 57101  1  0
 58102  1  0
 59103  1  0
 60104  1  0
 61105  1  0
 62106  1  0
 63107  1  0
 64108  1  0
 65109  1  0
 66110  1  0
 67111  1  0
 68112  1  0
 69113  1  0
 70114  1  0
 71115  1  0
 72116  1  0
M  END
> <Name>
Molecule

> <Clean Energy>
106.561

> <From>
www.bindingDB.org

> <BindingDB Reactant_set_id>
51310639

> <Ligand InChI>
InChI=1S/C52H44O12P4S4/c53-49-41-21-33(29-65(57,58)37-13-5-1-6-14-37)22-42(49)70-44-24-35(31-67(61,62)39-17-9-3-10-18-39)26-46(51(44)55)72-48-28-36(32-68(63,64)40-19-11-4-12-20-40)27-47(52(48)56)71-45
-25-34(23-43(69-41)50(45)54)30-66(59,60)38-15-7-2-8-16-38/h1-28,53-56H,29-32H2,(H,57,58)(H,59,60)(H,61,62)(H,63,64)

> <Ligand InChI Key>
RHGDRBPQTMCKHX-UHFFFAOYSA-N

> <BindingDB MonomerID>
50531901

> <BindingDB Ligand Name>
CHEMBL4540813

> <Target Name>
Tyrosine-protein phosphatase non-receptor type 1

> <Target Source Organism According to Curator or DataSource>
Homo sapiens

> <IC50 (nM)>
380

> <Curation/DataSource>
ChEMBL

> <Article DOI>
10.1016/j.bmcl.2019.01.026

> <BindingDB Entry DOI>
10.7270/Q2NC64P6

> <PMID>
30704811

> <Authors>
Buldenko, VM; Trush, VV; Kobzar, OL; Drapailo, AB; Kalchenko, VI; Vovk, AI

> <Institution>
V.P. Kukhar Institute of Bioorganic Chemistry and Petrochemistry of the National Academy of Sciences of Ukraine

> <Link to Ligand in BindingDB>
http://www.bindingdb.org/bind/chemsearch/marvin/MolStructure.jsp?monomerid=50531901

> <Link to Ligand-Target Pair in BindingDB>
http://www.bindingdb.org/jsp/dbsearch/PrimarySearch_ki.jsp?energyterm=kJ/mole&tag=pol&polymerid=2622&target=Tyrosine-protein+phosphatase+non-receptor+type+1&column=ki&startPg=0&Increment=50&submit=Sea
rch
http://www.bindingdb.org/jsp/dbsearch/PrimarySearch_ki.jsp?energyterm=kJ/mole&tag=r21&monomerid=50531901&enzyme=Tyrosine-protein+phosphatase+non-receptor+type+1&column=ki&startPg=0&Increment=50&submit
=Search

> <PubChem CID of Ligand>
155550512

> <PubChem SID of Ligand>
440740483

> <Number of Protein Chains in Target (bigger than 1 implies a multichain complex)>
1

> <BindingDB Target Chain Sequence>
MEMEKEFEQIDKSGSWAAIYQDIRHEASDFPCRVAKLPKNKNRNRYRDVSPFDHSRIKLHQEDNDYINASLIKMEEAQRSYILTQGPLPNTCGHFWEMVWEQKSRGVVMLNRVMEKGSLKCAQYWPQKEEKEMIFEDTNLKLTLISEDIKSYYTVRQLELENLTTQETREILHFHYTTWPDFGVPESPASFLNFLFKVRE
SGSLSPEHGPVVVHCSAGIGRSGTFCLADTCLLLMDKRKDPSSVDIKKVLLEMRKFRMGLIQTADQLRFSYLAVIEGAKFIMGDSSVQDQWKELSHEDLEPPPEHIPPPPRPPKRILEPHNGKCREFFPNHQWVKEETQEDKDCPIKEEKGSPLNAAPYGIESMSQDTEVRSRVVGGSLRGAQAASPAKGEPSLPEKDED
HALSYWKPFLVNMCVATVLTAGAYLCYRFLFNSNT

> <PDB ID(s) of Target Chain>
1BZJ,1G7G,1GFY,1JF7,1KAK,1KAV,1LQF,1NL9,1NNY,1NO6,1NZ7,1OEM,1OEO,1OES,1OET,1OEU,1OEV,1ONY,1ONZ,1PH0,1PXH,1PYN,1Q1M,1Q6J,1Q6M,1Q6N,1Q6P,1Q6S,1Q6T,1QXK,1SUG,1T48,1T49,1T4J,1WAX,1XBO,2AZR,2B07,2BGD,2BGE,
2CM2,2CM3,2CM7,2CM8,2CMA,2CMB,2CMC,2CNE,2CNF,2CNG,2CNH,2CNI,2F6T,2F6V,2F6W,2F6Y,2F6Z,2F70,2F71,2FJN,2H4G,2H4K,2HB1,2HNP,2HNQ,2QBP,2QBQ,2QBR,2QBS,2VEU,2VEV,2VEW,2VEX,2VEY,2ZMM,2ZN7,3A5J,3CWE,3D9C,3EAX,
3EB1,3EU0,3I7Z,3I80,3SME,4BJO,4I8N,4QBW,4Y14,5K9V,5K9W,5KA0,5KA1,5T19,6B90,6NTP,6W30,7KEY,7KLX,7LFO,7MN9,7MNA,8DU7,8G65,8G67,8G68,8G69,8G6A,8SKL

> <UniProt (SwissProt) Recommended Name of Target Chain>
Tyrosine-protein phosphatase non-receptor type 1

> <UniProt (SwissProt) Entry Name of Target Chain>
PTN1_HUMAN

> <UniProt (SwissProt) Primary ID of Target Chain>
P18031

> <UniProt (SwissProt) Secondary ID(s) of Target Chain>
Q5TGD8 Q9BQV9 Q9NQQ4

$$$$
Molecule
  SciTegic10242319433D

 47 50  0  0  0  0            999 V2000
    3.6810   -2.1610   -0.0002 C   0  0
    2.9220   -3.3064   -0.0003 C   0  0
    1.5544   -3.0070   -0.0004 O   0  0
    2.7064   -1.0963   -0.0002 C   0  0
    1.4401   -1.6682   -0.0003 C   0  0
    8.5807   -4.7930   -0.0007 C   0  0
    9.5215   -5.7223    0.0011 C   0  0
    8.8932   -3.3842    0.0004 C   0  0
    5.2857   -1.8217   -0.0001 C   0  0
    7.2450   -5.1889    0.0015 C   0  0
   10.9128   -5.3359   -0.0007 C   0  0
    7.7665   -2.4000   -0.0006 C   0  0
    6.4999   -2.8514    0.0004 C   0  0
   10.1712   -3.0048   -0.0012 C   0  0
   11.2364   -4.0399   -0.0006 C   0  0
    8.9730   -7.7108    0.0012 I   0  0
    6.2958   -4.2749    0.0007 C   0  0
    3.3868   -4.7121   -0.0005 C   0  0
   11.8991   -6.3166   -0.0003 O   0  0
    2.9003    0.2163   -0.0002 C   0  0
    0.3251   -0.9497   -0.0004 C   0  0
    2.3526   -5.8175   -0.0001 C   0  0
    3.2041   -7.1162   -0.0001 C   0  0
    1.6903    1.0753   -0.0002 C   0  0
    0.4686    0.5200   -0.0003 C   0  0
    2.3226   -8.3676    0.0003 C   0  0
    5.4399   -1.2120   -0.8903 H   0  0
    5.4397   -1.2115    0.8899 H   0  0
    6.9868   -6.2479    0.0038 H   0  0
    7.9700   -1.3292   -0.0021 H   0  0
   10.4317   -1.9464   -0.0030 H   0  0
   12.2847   -3.7413    0.0000 H   0  0
    5.2650   -4.6291    0.0004 H   0  0
    4.0009   -4.8472   -0.8908 H   0  0
    4.0016   -4.8472    0.8895 H   0  0
   11.7995   -6.9136    0.8578 H   0  0
    3.9028    0.6442   -0.0001 H   0  0
   -0.6561   -1.4243   -0.0005 H   0  0
    1.7260   -5.7634    0.8902 H   0  0
    1.7256   -5.7636   -0.8901 H   0  0
    3.8329   -7.1268   -0.8904 H   0  0
    3.8333   -7.1265    0.8899 H   0  0
    1.7940    2.1603   -0.0002 H   0  0
   -0.4181    1.1540   -0.0004 H   0  0
    2.9530   -9.2568    0.0002 H   0  0
    1.6929   -8.3694   -0.8895 H   0  0
    1.6933   -8.3691    0.8903 H   0  0
  2  1  2  0
  3  2  1  0
  4  1  1  0
  5  4  1  0
  6 10  1  0
  7  6  2  0
  8 12  1  0
  9  1  1  0
 10 17  2  0
 11  7  1  0
 12 13  2  0
 13  9  1  0
 14  8  2  0
 15 14  1  0
 16  7  1  0
 17 13  1  0
 18  2  1  0
 19 11  1  0
 20  4  2  0
 21  5  2  0
 22 18  1  0
 23 22  1  0
 24 20  1  0
 25 24  2  0
 26 23  1  0
  5  3  1  0
  8  6  1  0
 25 21  1  0
 11 15  2  0
  9 27  1  0
  9 28  1  0
 10 29  1  0
 12 30  1  0
 14 31  1  0
 15 32  1  0
 17 33  1  0
 18 34  1  0
 18 35  1  0
 19 36  1  0
 20 37  1  0
 21 38  1  0
 22 39  1  0
 22 40  1  0
 23 41  1  0
 23 42  1  0
 24 43  1  0
 25 44  1  0
 26 45  1  0
 26 46  1  0
 26 47  1  0
M  END
> <Name>
Molecule

> <Clean Energy>
42.2271

> <From>
www.bindingDB.org

> <BindingDB Reactant_set_id>
50154664

> <Ligand InChI>
InChI=1S/C23H21IO2/c1-2-3-7-22-19(18-6-4-5-8-21(18)26-22)14-15-9-11-17-16(13-15)10-12-20(25)23(17)24/h4-6,8-13,25H,2-3,7,14H2,1H3

> <Ligand InChI Key>
GFJUVBBGQHOSOK-UHFFFAOYSA-N

> <BindingDB MonomerID>
50086968

> <BindingDB Ligand Name>
6-(2-Butyl-benzofuran-3-ylmethyl)-1-iodo-naphthalen-2-ol::CHEMBL24680

> <Target Name>
Tyrosine-protein phosphatase non-receptor type 1

> <Target Source Organism According to Curator or DataSource>
Homo sapiens

> <IC50 (nM)>
380

> <Curation/DataSource>
ChEMBL

> <Article DOI>
10.1021/jm990560c

> <BindingDB Entry DOI>
10.7270/Q2W958FT

> <PMID>
10753467

> <Authors>
Malamas, MS; Sredy, J; Moxham, C; Katz, A; Xu, W; McDevitt, R; Adebayo, FO; Sawicki, DR; Seestaller, L; Sullivan, D; Taylor, JR

> <Institution>
Wyeth-Ayerst Research

> <Link to Ligand in BindingDB>
http://www.bindingdb.org/bind/chemsearch/marvin/MolStructure.jsp?monomerid=50086968

> <Link to Ligand-Target Pair in BindingDB>
http://www.bindingdb.org/jsp/dbsearch/PrimarySearch_ki.jsp?energyterm=kJ/mole&tag=pol&polymerid=2622&target=Tyrosine-protein+phosphatase+non-receptor+type+1&column=ki&startPg=0&Increment=50&submit=Sea
rch
http://www.bindingdb.org/jsp/dbsearch/PrimarySearch_ki.jsp?energyterm=kJ/mole&tag=r21&monomerid=50086968&enzyme=Tyrosine-protein+phosphatase+non-receptor+type+1&column=ki&startPg=0&Increment=50&submit
=Search

> <PubChem CID of Ligand>
9955674

> <PubChem SID of Ligand>
103986079

> <ChEMBL ID of Ligand>
CHEMBL24680

> <ZINC ID of Ligand>
ZINC13806815

> <Number of Protein Chains in Target (bigger than 1 implies a multichain complex)>
1

> <BindingDB Target Chain Sequence>
MEMEKEFEQIDKSGSWAAIYQDIRHEASDFPCRVAKLPKNKNRNRYRDVSPFDHSRIKLHQEDNDYINASLIKMEEAQRSYILTQGPLPNTCGHFWEMVWEQKSRGVVMLNRVMEKGSLKCAQYWPQKEEKEMIFEDTNLKLTLISEDIKSYYTVRQLELENLTTQETREILHFHYTTWPDFGVPESPASFLNFLFKVRE
SGSLSPEHGPVVVHCSAGIGRSGTFCLADTCLLLMDKRKDPSSVDIKKVLLEMRKFRMGLIQTADQLRFSYLAVIEGAKFIMGDSSVQDQWKELSHEDLEPPPEHIPPPPRPPKRILEPHNGKCREFFPNHQWVKEETQEDKDCPIKEEKGSPLNAAPYGIESMSQDTEVRSRVVGGSLRGAQAASPAKGEPSLPEKDED
HALSYWKPFLVNMCVATVLTAGAYLCYRFLFNSNT

> <PDB ID(s) of Target Chain>
1BZJ,1G7G,1GFY,1JF7,1KAK,1KAV,1LQF,1NL9,1NNY,1NO6,1NZ7,1OEM,1OEO,1OES,1OET,1OEU,1OEV,1ONY,1ONZ,1PH0,1PXH,1PYN,1Q1M,1Q6J,1Q6M,1Q6N,1Q6P,1Q6S,1Q6T,1QXK,1SUG,1T48,1T49,1T4J,1WAX,1XBO,2AZR,2B07,2BGD,2BGE,
2CM2,2CM3,2CM7,2CM8,2CMA,2CMB,2CMC,2CNE,2CNF,2CNG,2CNH,2CNI,2F6T,2F6V,2F6W,2F6Y,2F6Z,2F70,2F71,2FJN,2H4G,2H4K,2HB1,2HNP,2HNQ,2QBP,2QBQ,2QBR,2QBS,2VEU,2VEV,2VEW,2VEX,2VEY,2ZMM,2ZN7,3A5J,3CWE,3D9C,3EAX,
3EB1,3EU0,3I7Z,3I80,3SME,4BJO,4I8N,4QBW,4Y14,5K9V,5K9W,5KA0,5KA1,5T19,6B90,6NTP,6W30,7KEY,7KLX,7LFO,7MN9,7MNA,8DU7,8G65,8G67,8G68,8G69,8G6A,8SKL

> <UniProt (SwissProt) Recommended Name of Target Chain>
Tyrosine-protein phosphatase non-receptor type 1

> <UniProt (SwissProt) Entry Name of Target Chain>
PTN1_HUMAN

> <UniProt (SwissProt) Primary ID of Target Chain>
P18031

> <UniProt (SwissProt) Secondary ID(s) of Target Chain>
Q5TGD8 Q9BQV9 Q9NQQ4

$$$$
Molecule
  SciTegic10242319433D

 46 48  0  0  0  0            999 V2000
    2.8048   -3.0577    0.0017 C   0  0
    1.5692   -2.5513    0.0374 C   0  0
    0.5102   -3.6562    0.0155 C   0  0
    1.0376   -4.8922   -0.0335 C   0  0
    2.7088   -4.7132   -0.0523 S   0  0
   11.6140   -0.7046    0.0945 C   0  0
   11.5727   -2.0331   -0.0090 C   0  0
   12.8380   -2.7882   -0.0201 C   0  0
   12.9013   -0.0057    0.1909 C   0  0
   14.0369   -0.6946    0.1748 C   0  0
   14.0114   -2.1507    0.0724 C   0  0
   15.2984   -2.9485    0.0761 C   0  0
   16.4593   -2.1677    0.4843 O   0  0
   16.4896   -0.9056   -0.1791 C   0  0  1  0  0  0
   15.3459    0.0163    0.2868 C   0  0
   17.8081   -0.2253    0.0592 C   0  0
   18.8414   -0.8969    0.1558 O   0  0
   17.8641    1.1590    0.1895 O   0  0
   10.3321   -2.7612   -0.0896 N   0  0
    9.0987   -2.2121   -0.0491 C   0  0
    7.8836   -3.1139   -0.1241 C   0  0
    8.9271   -0.9939    0.0629 O   0  0
    6.5959   -2.2559   -0.0332 C   0  0
    5.3280   -3.1498   -0.0697 C   0  0
    4.0759   -2.2429    0.0121 C   0  0
    1.3435   -1.4856    0.0770 H   0  0
   -0.5620   -3.4612    0.0375 H   0  0
    0.4860   -5.8320   -0.0566 H   0  0
   10.6856   -0.1335    0.1075 H   0  0
   12.8183   -3.8748   -0.1043 H   0  0
   12.9253    1.0808    0.2759 H   0  0
   15.1846   -3.7853    0.7652 H   0  0
   15.4732   -3.3275   -0.9308 H   0  0
   16.3792   -1.0768   -1.2499 H   0  0
   15.3257    0.9095   -0.3376 H   0  0
   15.5133    0.3020    1.3252 H   0  0
   17.5025    1.6085   -0.6878 H   0  0
   10.3928   -3.8248   -0.1899 H   0  0
    7.8921   -3.6568   -1.0693 H   0  0
    7.9063   -3.8234    0.7031 H   0  0
    6.6081   -1.6930    0.9001 H   0  0
    6.5684   -1.5642   -0.8751 H   0  0
    5.3079   -3.7190   -0.9991 H   0  0
    5.3392   -3.8361    0.7771 H   0  0
    4.1178   -1.6628    0.9340 H   0  0
    4.0710   -1.5671   -0.8431 H   0  0
  6  7  2  0
  2  3  1  0
 10 15  1  0
 11 12  1  0
 12 13  1  0
 14 13  1  0
 14 15  1  0
  7  8  1  0
 14 16  1  0
  8 11  2  0
 16 17  2  0
  3  4  2  0
 16 18  1  0
 10  9  2  0
  7 19  1  0
  9  6  1  0
 19 20  1  0
 10 11  1  0
 20 21  1  0
  4  5  1  0
 20 22  2  0
  5  1  1  0
 21 23  1  0
 23 24  1  0
  1  2  2  0
 24 25  1  0
  1 25  1  0
  2 26  1  0
  3 27  1  0
  4 28  1  0
  6 29  1  0
  8 30  1  0
  9 31  1  0
 12 32  1  0
 12 33  1  0
 14 34  1  0
 15 35  1  0
 15 36  1  0
 18 37  1  0
 19 38  1  0
 21 39  1  0
 21 40  1  0
 23 41  1  0
 23 42  1  0
 24 43  1  0
 24 44  1  0
 25 45  1  0
 25 46  1  0
M  END
> <Name>
Molecule

> <Clean Energy>
34.681

> <From>
www.bindingDB.org

> <BindingDB Reactant_set_id>
50513451

> <Ligand InChI>
InChI=1S/C19H21NO4S/c21-18(6-2-1-4-16-5-3-9-25-16)20-15-8-7-13-11-17(19(22)23)24-12-14(13)10-15/h3,5,7-10,17H,1-2,4,6,11-12H2,(H,20,21)(H,22,23)/t17-/m0/s1

> <Ligand InChI Key>
NFXYGJNCWVDKLI-KRWDZBQOSA-N

> <BindingDB MonomerID>
50296370

> <BindingDB Ligand Name>
(3S)-7-[4-(2-Thienyl)butylcarboxamido]-isochroman-3-carboxylic acid::CHEMBL550462

> <Target Name>
Tyrosine-protein phosphatase non-receptor type 1

> <Target Source Organism According to Curator or DataSource>
Homo sapiens

> <IC50 (nM)>
383.7

> <Curation/DataSource>
ChEMBL

> <Article DOI>
10.1016/j.ejmech.2009.03.009

> <BindingDB Entry DOI>
10.7270/Q2FJ2GTG

> <PMID>
19349096

> <Authors>
Lakshminarayana, N; Rajendra Prasad, Y; Gharat, L; Thomas, A; Ravikumar, P; Narayanan, S; Srinivasan, CV; Gopalan, B

> <Institution>
Glenmark Research Center

> <Link to Ligand in BindingDB>
http://www.bindingdb.org/bind/chemsearch/marvin/MolStructure.jsp?monomerid=50296370

> <Link to Ligand-Target Pair in BindingDB>
http://www.bindingdb.org/jsp/dbsearch/PrimarySearch_ki.jsp?energyterm=kJ/mole&tag=pol&polymerid=2622&target=Tyrosine-protein+phosphatase+non-receptor+type+1&column=ki&startPg=0&Increment=50&submit=Sea
rch
http://www.bindingdb.org/jsp/dbsearch/PrimarySearch_ki.jsp?energyterm=kJ/mole&tag=r21&monomerid=50296370&enzyme=Tyrosine-protein+phosphatase+non-receptor+type+1&column=ki&startPg=0&Increment=50&submit
=Search

> <PubChem CID of Ligand>
44139660

> <PubChem SID of Ligand>
104137901

> <ChEMBL ID of Ligand>
CHEMBL550462

> <ZINC ID of Ligand>
ZINC43018429

> <Number of Protein Chains in Target (bigger than 1 implies a multichain complex)>
1

> <BindingDB Target Chain Sequence>
MEMEKEFEQIDKSGSWAAIYQDIRHEASDFPCRVAKLPKNKNRNRYRDVSPFDHSRIKLHQEDNDYINASLIKMEEAQRSYILTQGPLPNTCGHFWEMVWEQKSRGVVMLNRVMEKGSLKCAQYWPQKEEKEMIFEDTNLKLTLISEDIKSYYTVRQLELENLTTQETREILHFHYTTWPDFGVPESPASFLNFLFKVRE
SGSLSPEHGPVVVHCSAGIGRSGTFCLADTCLLLMDKRKDPSSVDIKKVLLEMRKFRMGLIQTADQLRFSYLAVIEGAKFIMGDSSVQDQWKELSHEDLEPPPEHIPPPPRPPKRILEPHNGKCREFFPNHQWVKEETQEDKDCPIKEEKGSPLNAAPYGIESMSQDTEVRSRVVGGSLRGAQAASPAKGEPSLPEKDED
HALSYWKPFLVNMCVATVLTAGAYLCYRFLFNSNT

> <PDB ID(s) of Target Chain>
1BZJ,1G7G,1GFY,1JF7,1KAK,1KAV,1LQF,1NL9,1NNY,1NO6,1NZ7,1OEM,1OEO,1OES,1OET,1OEU,1OEV,1ONY,1ONZ,1PH0,1PXH,1PYN,1Q1M,1Q6J,1Q6M,1Q6N,1Q6P,1Q6S,1Q6T,1QXK,1SUG,1T48,1T49,1T4J,1WAX,1XBO,2AZR,2B07,2BGD,2BGE,
2CM2,2CM3,2CM7,2CM8,2CMA,2CMB,2CMC,2CNE,2CNF,2CNG,2CNH,2CNI,2F6T,2F6V,2F6W,2F6Y,2F6Z,2F70,2F71,2FJN,2H4G,2H4K,2HB1,2HNP,2HNQ,2QBP,2QBQ,2QBR,2QBS,2VEU,2VEV,2VEW,2VEX,2VEY,2ZMM,2ZN7,3A5J,3CWE,3D9C,3EAX,
3EB1,3EU0,3I7Z,3I80,3SME,4BJO,4I8N,4QBW,4Y14,5K9V,5K9W,5KA0,5KA1,5T19,6B90,6NTP,6W30,7KEY,7KLX,7LFO,7MN9,7MNA,8DU7,8G65,8G67,8G68,8G69,8G6A,8SKL

> <UniProt (SwissProt) Recommended Name of Target Chain>
Tyrosine-protein phosphatase non-receptor type 1

> <UniProt (SwissProt) Entry Name of Target Chain>
PTN1_HUMAN

> <UniProt (SwissProt) Primary ID of Target Chain>
P18031

> <UniProt (SwissProt) Secondary ID(s) of Target Chain>
Q5TGD8 Q9BQV9 Q9NQQ4

$$$$
Molecule
  SciTegic10242319433D

 63 67  0  0  0  0            999 V2000
   -4.8250    0.1011   -0.0278 C   0  0
   -3.3491   -0.0271   -0.0225 C   0  0
   -2.5604    1.1191   -0.0401 C   0  0
   -5.5303   -1.3977   -0.0466 S   0  0
   -3.0569   -1.6460    0.0254 C   0  0
   -4.1856   -2.3673    0.0096 C   0  0
   -3.3491    2.4679   -0.0208 C   0  0
   -5.5106    1.2239   -0.0177 C   0  0
   -0.9773    1.1427   -0.0619 C   0  0
    1.8934    0.9599   -0.0451 C   0  0
   -4.8207    2.4570   -0.0059 C   0  0
    3.3897    1.0339    0.1327 O   0  0
    4.3201   -0.0840   -0.1087 C   0  0  1  0  0  0
    1.1061   -0.0299   -0.5701 C   0  0
    1.1846    2.1739    0.4324 C   0  0
    5.7213    0.4801    0.0400 C   0  0
   -0.3223    0.1167   -0.5435 C   0  0
   -0.1482    2.2599    0.4223 C   0  0
    4.0326   -1.3114    0.8633 C   0  0
    5.9286    1.6552   -0.2811 O   0  0
   -7.4085    1.1773   -0.0232 Br  0  0
    6.7336   -0.2424    0.6591 O   0  0
    4.6751   -2.6512    0.4782 C   0  0
   -1.7694   -2.4234    0.1295 C   0  0
   -2.7484    3.6613   -0.0311 C   0  0
   -4.2317   -3.8706    0.0618 C   0  0
   -5.5233    3.5878    0.0084 C   0  0
    1.5329   -1.3481   -1.1885 C   0  0
    1.9899    3.3436    0.9227 C   0  0
    4.0486   -3.7644    0.8635 C   0  0
    5.8783   -2.7643   -0.3579 C   0  0
   -3.5195    4.9080   -0.0122 C   0  0
   -4.8470    4.8706    0.0096 C   0  0
    4.5573   -5.0816    0.4775 C   0  0
    6.3436   -3.9627   -0.7085 C   0  0
    5.6517   -5.1768   -0.2731 C   0  0
    4.1925   -0.4221   -1.1370 H   0  0
   -0.9132   -0.6985   -0.9612 H   0  0
   -0.6299    3.1709    0.7777 H   0  0
    4.3967   -1.0418    1.8546 H   0  0
    2.9533   -1.4596    0.8999 H   0  0
    6.4564   -0.4564    1.6490 H   0  0
   -1.9882   -3.4911    0.1320 H   0  0
   -1.2566   -2.1559    1.0534 H   0  0
   -1.1311   -2.1858   -0.7217 H   0  0
   -1.6597    3.7091   -0.0541 H   0  0
   -3.2160   -4.2650    0.0924 H   0  0
   -4.7416   -4.2500   -0.8238 H   0  0
   -4.7709   -4.1873    0.9546 H   0  0
   -6.6125    3.5491    0.0193 H   0  0
    2.6208   -1.4152   -1.1874 H   0  0
    1.1669   -1.4045   -2.2137 H   0  0
    1.1180   -2.1730   -0.6091 H   0  0
    1.3178    4.1435    1.2332 H   0  0
    2.6353    3.7027    0.1210 H   0  0
    2.6018    3.0345    1.7702 H   0  0
    3.1476   -3.6922    1.4727 H   0  0
    6.3926   -1.8636   -0.6929 H   0  0
   -3.0023    5.8675   -0.0160 H   0  0
   -5.4229    5.7959    0.0282 H   0  0
    4.0400   -5.9835    0.8047 H   0  0
    7.2419   -4.0391   -1.3211 H   0  0
    6.0320   -6.1563   -0.5630 H   0  0
  2  1  1  0
  3  2  2  0
  4  1  1  0
  5  2  1  0
  6  4  1  0
  7 11  1  0
  8  1  2  0
  9  3  1  0
 10 15  1  0
 11  8  1  0
 12 10  1  0
 13 12  1  0
 14 17  1  0
 15 18  2  0
 13 16  1  0
 17  9  2  0
 18  9  1  0
 13 19  1  0
 20 16  2  0
 21  8  1  0
 22 16  1  0
 23 19  1  0
 24  5  1  0
 25  7  2  0
 26  6  1  0
 27 11  2  0
 28 14  1  0
 29 15  1  0
 30 23  2  0
 31 23  1  0
 32 33  2  0
 33 27  1  0
 34 30  1  0
 35 31  2  0
 36 35  1  0
  5  6  2  0
  3  7  1  0
 25 32  1  0
 14 10  2  0
 34 36  2  0
 13 37  1  0
 17 38  1  0
 18 39  1  0
 19 40  1  0
 19 41  1  0
 22 42  1  0
 24 43  1  0
 24 44  1  0
 24 45  1  0
 25 46  1  0
 26 47  1  0
 26 48  1  0
 26 49  1  0
 27 50  1  0
 28 51  1  0
 28 52  1  0
 28 53  1  0
 29 54  1  0
 29 55  1  0
 29 56  1  0
 30 57  1  0
 31 58  1  0
 32 59  1  0
 33 60  1  0
 34 61  1  0
 35 62  1  0
 36 63  1  0
M  END
> <Name>
Molecule

> <Clean Energy>
85.5979

> <From>
www.bindingDB.org

> <BindingDB Reactant_set_id>
50529055

> <Ligand InChI>
InChI=1S/C31H27BrO3S/c1-17-14-22(15-18(2)29(17)35-25(31(33)34)16-21-10-6-5-7-11-21)27-23-12-8-9-13-24(23)28(32)30-26(27)19(3)20(4)36-30/h5-15,25H,16H2,1-4H3,(H,33,34)/t25-/m1/s1

> <Ligand InChI Key>
FONCZICQWCUXEB-RUZDIDTESA-N

> <BindingDB MonomerID>
50209683

> <BindingDB Ligand Name>
(R)-2-(4-(9-bromo-2,3-dimethylnaphtho[2,3-b]thiophen-4-yl)-2,6-dimethylphenoxy)-3-phenylpropanoic acid::2-[4-(9-Bromo-2,3-dimethyl-naphtho[2,3-b]thiophen-4-yl)-2,6-dimethyl-phenoxy]-3-phenyl-propionic
 acid::CHEMBL184041::Ertiprotafib

> <Target Name>
Tyrosine-protein phosphatase non-receptor type 1

> <Target Source Organism According to Curator or DataSource>
Homo sapiens

> <IC50 (nM)>
384

> <Curation/DataSource>
ChEMBL

> <Article DOI>
10.1016/j.ejmech.2016.05.060

> <BindingDB Entry DOI>
10.7270/Q25Q4Z2D

> <PMID>
27526040

> <Authors>
Meng, G; Zheng, M; Wang, M; Tong, J; Ge, W; Zhang, J; Zheng, A; Li, J; Gao, L; Li, J

> <Institution>
Xi'an Jiaotong University

> <Link to Ligand in BindingDB>
http://www.bindingdb.org/bind/chemsearch/marvin/MolStructure.jsp?monomerid=50209683

> <Link to Ligand-Target Pair in BindingDB>
http://www.bindingdb.org/jsp/dbsearch/PrimarySearch_ki.jsp?energyterm=kJ/mole&tag=pol&polymerid=2622&target=Tyrosine-protein+phosphatase+non-receptor+type+1&column=ki&startPg=0&Increment=50&submit=Sea
rch
http://www.bindingdb.org/jsp/dbsearch/PrimarySearch_ki.jsp?energyterm=kJ/mole&tag=r21&monomerid=50209683&enzyme=Tyrosine-protein+phosphatase+non-receptor+type+1&column=ki&startPg=0&Increment=50&submit
=Search

> <PubChem CID of Ligand>
157049

> <PubChem SID of Ligand>
104086407

> <ChEMBL ID of Ligand>
CHEMBL184041

> <ZINC ID of Ligand>
ZINC01547338

> <Number of Protein Chains in Target (bigger than 1 implies a multichain complex)>
1

> <BindingDB Target Chain Sequence>
MEMEKEFEQIDKSGSWAAIYQDIRHEASDFPCRVAKLPKNKNRNRYRDVSPFDHSRIKLHQEDNDYINASLIKMEEAQRSYILTQGPLPNTCGHFWEMVWEQKSRGVVMLNRVMEKGSLKCAQYWPQKEEKEMIFEDTNLKLTLISEDIKSYYTVRQLELENLTTQETREILHFHYTTWPDFGVPESPASFLNFLFKVRE
SGSLSPEHGPVVVHCSAGIGRSGTFCLADTCLLLMDKRKDPSSVDIKKVLLEMRKFRMGLIQTADQLRFSYLAVIEGAKFIMGDSSVQDQWKELSHEDLEPPPEHIPPPPRPPKRILEPHNGKCREFFPNHQWVKEETQEDKDCPIKEEKGSPLNAAPYGIESMSQDTEVRSRVVGGSLRGAQAASPAKGEPSLPEKDED
HALSYWKPFLVNMCVATVLTAGAYLCYRFLFNSNT

> <PDB ID(s) of Target Chain>
1BZJ,1G7G,1GFY,1JF7,1KAK,1KAV,1LQF,1NL9,1NNY,1NO6,1NZ7,1OEM,1OEO,1OES,1OET,1OEU,1OEV,1ONY,1ONZ,1PH0,1PXH,1PYN,1Q1M,1Q6J,1Q6M,1Q6N,1Q6P,1Q6S,1Q6T,1QXK,1SUG,1T48,1T49,1T4J,1WAX,1XBO,2AZR,2B07,2BGD,2BGE,
2CM2,2CM3,2CM7,2CM8,2CMA,2CMB,2CMC,2CNE,2CNF,2CNG,2CNH,2CNI,2F6T,2F6V,2F6W,2F6Y,2F6Z,2F70,2F71,2FJN,2H4G,2H4K,2HB1,2HNP,2HNQ,2QBP,2QBQ,2QBR,2QBS,2VEU,2VEV,2VEW,2VEX,2VEY,2ZMM,2ZN7,3A5J,3CWE,3D9C,3EAX,
3EB1,3EU0,3I7Z,3I80,3SME,4BJO,4I8N,4QBW,4Y14,5K9V,5K9W,5KA0,5KA1,5T19,6B90,6NTP,6W30,7KEY,7KLX,7LFO,7MN9,7MNA,8DU7,8G65,8G67,8G68,8G69,8G6A,8SKL

> <UniProt (SwissProt) Recommended Name of Target Chain>
Tyrosine-protein phosphatase non-receptor type 1

> <UniProt (SwissProt) Entry Name of Target Chain>
PTN1_HUMAN

> <UniProt (SwissProt) Primary ID of Target Chain>
P18031

> <UniProt (SwissProt) Secondary ID(s) of Target Chain>
Q5TGD8 Q9BQV9 Q9NQQ4

$$$$
Molecule
  SciTegic10242319433D

 48 50  0  0  0  0            999 V2000
    0.5058  -10.9187   -0.0892 C   0  0
    0.5682  -12.2474   -0.1395 C   0  0
    1.8605  -12.9372   -0.0560 C   0  0
    1.7572  -10.1475    0.0453 C   0  0
    2.9389  -10.7826    0.1136 C   0  0
    2.9819  -12.2418    0.0670 C   0  0
    4.3084  -12.9736    0.1596 C   0  0
    5.4128  -12.1258    0.5701 O   0  0
    5.4068  -10.8920   -0.1427 C   0  0  1  0  0  0
    4.2033  -10.0025    0.2524 C   0  0
    6.6924  -10.1561    0.1056 C   0  0
    7.7540  -10.7842    0.1944 O   0  0
    6.6905   -8.7725    0.2425 O   0  0
   -0.7476  -10.2059   -0.1779 N   0  0
   -1.9700  -10.7855   -0.1972 C   0  0
   -3.2086   -9.9165   -0.3096 C   0  0
   -2.1149  -12.0084   -0.1149 O   0  0
   -4.4657  -10.8080   -0.1244 C   0  0
   -5.7832   -9.9885   -0.2276 C   0  0  2  0  0  0
   -5.8331   -8.8442    0.8294 C   0  0
   -7.6070   -8.3890    0.9951 S   0  0
   -8.4316   -9.6546    0.0102 C   0  0
   -7.2468  -10.9879    0.1409 S   0  0
   -8.4854   -9.2032   -1.4615 C   0  0
   -9.8423  -10.0052    0.5250 C   0  0
   -0.3484  -12.8279   -0.2436 H   0  0
    1.8984  -14.0258   -0.0954 H   0  0
    1.7224   -9.0590    0.0893 H   0  0
    4.2063  -13.7812    0.8844 H   0  0
    4.5404  -13.3912   -0.8202 H   0  0
    5.3368  -11.1111   -1.2082 H   0  0
    4.1658   -9.1313   -0.4017 H   0  0
    4.3170   -9.6766    1.2863 H   0  0
    7.0598   -8.5136    1.1908 H   0  0
   -0.7060   -9.1381   -0.2324 H   0  0
   -3.1878   -9.1481    0.4632 H   0  0
   -3.2364   -9.4443   -1.2916 H   0  0
   -4.4685  -11.5767   -0.8971 H   0  0
   -4.4209  -11.2792    0.8575 H   0  0
   -5.8725   -9.5654   -1.2281 H   0  0
   -5.4404   -9.1930    1.7846 H   0  0
   -5.2521   -7.9873    0.4883 H   0  0
   -8.9835   -9.9672   -2.0584 H   0  0
   -7.4717   -9.0555   -1.8341 H   0  0
   -9.0391   -8.2672   -1.5350 H   0  0
  -10.2819  -10.7725   -0.1122 H   0  0
  -10.4691   -9.1137    0.5044 H   0  0
   -9.7744  -10.3776    1.5472 H   0  0
 11 12  2  0
  2  3  1  0
 11 13  1  0
  3  6  2  0
  1 14  1  0
  1  2  2  0
 14 15  1  0
  5  4  2  0
 15 16  1  0
  4  1  1  0
 15 17  2  0
  5 10  1  0
 16 18  1  0
  6  7  1  0
 18 19  1  0
 19 20  1  0
  7  8  1  0
  9  8  1  0
  9 10  1  0
  5  6  1  0
 20 21  1  0
 21 22  1  0
 22 23  1  0
 23 19  1  0
  9 11  1  0
 22 24  1  0
 22 25  1  0
  2 26  1  0
  3 27  1  0
  4 28  1  0
  7 29  1  0
  7 30  1  0
  9 31  1  0
 10 32  1  0
 10 33  1  0
 13 34  1  0
 14 35  1  0
 16 36  1  0
 16 37  1  0
 18 38  1  0
 18 39  1  0
 19 40  1  0
 20 41  1  0
 20 42  1  0
 24 43  1  0
 24 44  1  0
 24 45  1  0
 25 46  1  0
 25 47  1  0
 25 48  1  0
M  END
> <Name>
Molecule

> <Clean Energy>
37.2407

> <From>
www.bindingDB.org

> <BindingDB Reactant_set_id>
50513454

> <Ligand InChI>
InChI=1S/C18H23NO4S2/c1-18(2)24-10-14(25-18)5-6-16(20)19-13-4-3-11-9-23-15(17(21)22)8-12(11)7-13/h3-4,7,14-15H,5-6,8-10H2,1-2H3,(H,19,20)(H,21,22)/t14?,15-/m0/s1

> <Ligand InChI Key>
BBPBZPASZSZJRI-LOACHALJSA-N

> <BindingDB MonomerID>
50296373

> <BindingDB Ligand Name>
(3S)-6-[2-(2,2-Dimethyl-1,3-dithiolan-4-yl)ethylcarboxamido]-isochroman-3-carboxylic acid::CHEMBL556076

> <Target Name>
Tyrosine-protein phosphatase non-receptor type 1

> <Target Source Organism According to Curator or DataSource>
Homo sapiens

> <IC50 (nM)>
385.7

> <Curation/DataSource>
ChEMBL

> <Article DOI>
10.1016/j.ejmech.2009.03.009

> <BindingDB Entry DOI>
10.7270/Q2FJ2GTG

> <PMID>
19349096

> <Authors>
Lakshminarayana, N; Rajendra Prasad, Y; Gharat, L; Thomas, A; Ravikumar, P; Narayanan, S; Srinivasan, CV; Gopalan, B

> <Institution>
Glenmark Research Center

> <Link to Ligand in BindingDB>
http://www.bindingdb.org/bind/chemsearch/marvin/MolStructure.jsp?monomerid=50296373

> <Link to Ligand-Target Pair in BindingDB>
http://www.bindingdb.org/jsp/dbsearch/PrimarySearch_ki.jsp?energyterm=kJ/mole&tag=pol&polymerid=2622&target=Tyrosine-protein+phosphatase+non-receptor+type+1&column=ki&startPg=0&Increment=50&submit=Sea
rch
http://www.bindingdb.org/jsp/dbsearch/PrimarySearch_ki.jsp?energyterm=kJ/mole&tag=r21&monomerid=50296373&enzyme=Tyrosine-protein+phosphatase+non-receptor+type+1&column=ki&startPg=0&Increment=50&submit
=Search

> <PubChem CID of Ligand>
44139779

> <PubChem SID of Ligand>
104137904

> <ChEMBL ID of Ligand>
CHEMBL556076

> <ZINC ID of Ligand>
ZINC43018065

> <Number of Protein Chains in Target (bigger than 1 implies a multichain complex)>
1

> <BindingDB Target Chain Sequence>
MEMEKEFEQIDKSGSWAAIYQDIRHEASDFPCRVAKLPKNKNRNRYRDVSPFDHSRIKLHQEDNDYINASLIKMEEAQRSYILTQGPLPNTCGHFWEMVWEQKSRGVVMLNRVMEKGSLKCAQYWPQKEEKEMIFEDTNLKLTLISEDIKSYYTVRQLELENLTTQETREILHFHYTTWPDFGVPESPASFLNFLFKVRE
SGSLSPEHGPVVVHCSAGIGRSGTFCLADTCLLLMDKRKDPSSVDIKKVLLEMRKFRMGLIQTADQLRFSYLAVIEGAKFIMGDSSVQDQWKELSHEDLEPPPEHIPPPPRPPKRILEPHNGKCREFFPNHQWVKEETQEDKDCPIKEEKGSPLNAAPYGIESMSQDTEVRSRVVGGSLRGAQAASPAKGEPSLPEKDED
HALSYWKPFLVNMCVATVLTAGAYLCYRFLFNSNT

> <PDB ID(s) of Target Chain>
1BZJ,1G7G,1GFY,1JF7,1KAK,1KAV,1LQF,1NL9,1NNY,1NO6,1NZ7,1OEM,1OEO,1OES,1OET,1OEU,1OEV,1ONY,1ONZ,1PH0,1PXH,1PYN,1Q1M,1Q6J,1Q6M,1Q6N,1Q6P,1Q6S,1Q6T,1QXK,1SUG,1T48,1T49,1T4J,1WAX,1XBO,2AZR,2B07,2BGD,2BGE,
2CM2,2CM3,2CM7,2CM8,2CMA,2CMB,2CMC,2CNE,2CNF,2CNG,2CNH,2CNI,2F6T,2F6V,2F6W,2F6Y,2F6Z,2F70,2F71,2FJN,2H4G,2H4K,2HB1,2HNP,2HNQ,2QBP,2QBQ,2QBR,2QBS,2VEU,2VEV,2VEW,2VEX,2VEY,2ZMM,2ZN7,3A5J,3CWE,3D9C,3EAX,
3EB1,3EU0,3I7Z,3I80,3SME,4BJO,4I8N,4QBW,4Y14,5K9V,5K9W,5KA0,5KA1,5T19,6B90,6NTP,6W30,7KEY,7KLX,7LFO,7MN9,7MNA,8DU7,8G65,8G67,8G68,8G69,8G6A,8SKL

> <UniProt (SwissProt) Recommended Name of Target Chain>
Tyrosine-protein phosphatase non-receptor type 1

> <UniProt (SwissProt) Entry Name of Target Chain>
PTN1_HUMAN

> <UniProt (SwissProt) Primary ID of Target Chain>
P18031

> <UniProt (SwissProt) Secondary ID(s) of Target Chain>
Q5TGD8 Q9BQV9 Q9NQQ4

$$$$
Molecule
  SciTegic10242319433D

 44 48  0  0  0  0            999 V2000
    4.3716   -9.6903    0.0006 C   0  0
    3.5051   -8.6709   -0.0006 C   0  0
    4.0856   -7.1811    0.0008 C   0  0
    3.5906  -11.1645    0.0001 S   0  0
    5.4714   -7.1129   -0.0011 C   0  0
    5.7715   -9.5464   -0.0009 C   0  0
    3.1662   -5.8481   -0.0003 C   0  0
    6.3049   -8.3414    0.0006 C   0  0
    1.5839   -3.4543   -0.0001 C   0  0
    2.0190   -9.2916    0.0005 C   0  0
    2.0380  -10.6228    0.0002 C   0  0
    2.9410   -3.3917   -0.0002 C   0  0
    0.9831   -4.7902   -0.0001 C   0  0
    3.6907   -4.6259   -0.0001 C   0  0
    1.7352   -5.8887    0.0000 C   0  0
    0.6328   -2.3523   -0.0001 O   0  0
    0.0605   -0.0133    0.0002 C   0  0
   -1.1232   -0.3655    0.0007 O   0  0
    1.1469   -1.0295   -0.0002 C   0  0
    6.8907  -11.0805   -0.0002 Br  0  0
   -0.9100   -4.9655    0.0000 Br  0  0
    4.0582   -1.8154   -0.0002 Br  0  0
    0.3908    1.3379    0.0001 O   0  0
    6.2701   -5.8514    0.0000 C   0  0
    7.7639   -8.2415   -0.0006 C   0  0
    0.7180   -8.6352    0.0004 C   0  0
    0.8426  -11.4464    0.0005 C   0  0
    7.6004   -5.8322   -0.0006 C   0  0
    8.3723   -7.0610   -0.0003 C   0  0
   -0.4027   -9.3625    0.0007 C   0  0
   -0.3411  -10.8367    0.0006 C   0  0
    4.7780   -4.5494    0.0002 H   0  0
    1.2405   -6.8600    0.0004 H   0  0
    1.7599   -0.8897   -0.8905 H   0  0
    1.7605   -0.8898    0.8898 H   0  0
    0.9551    1.5608    0.8572 H   0  0
    5.7375   -4.9003    0.0014 H   0  0
    8.3628   -9.1522   -0.0018 H   0  0
    0.6589   -7.5468    0.0001 H   0  0
    0.9121  -12.5342    0.0006 H   0  0
    8.1208   -4.8744   -0.0013 H   0  0
    9.4614   -7.0146    0.0002 H   0  0
   -1.3712   -8.8623    0.0009 H   0  0
   -1.2596  -11.4235    0.0007 H   0  0
  2  1  2  0
  3  2  1  0
  4  1  1  0
  5  8  1  0
  6  1  1  0
  7  3  1  0
  8  6  2  0
  9 13  1  0
 10  2  1  0
 11  4  1  0
 12 14  1  0
 13 15  2  0
 14  7  2  0
 15  7  1  0
 16  9  1  0
 17 19  1  0
 18 17  2  0
 19 16  1  0
 20  6  1  0
 21 13  1  0
 22 12  1  0
 23 17  1  0
 24  5  1  0
 25  8  1  0
 26 10  1  0
 27 11  1  0
 28 29  1  0
 29 25  2  0
 30 26  2  0
 31 27  2  0
 11 10  2  0
  3  5  2  0
 31 30  1  0
 24 28  2  0
  9 12  2  0
 14 32  1  0
 15 33  1  0
 19 34  1  0
 19 35  1  0
 23 36  1  0
 24 37  1  0
 25 38  1  0
 26 39  1  0
 27 40  1  0
 28 41  1  0
 29 42  1  0
 30 43  1  0
 31 44  1  0
M  END
> <Name>
Molecule

> <Clean Energy>
52.8988

> <From>
www.bindingDB.org

> <BindingDB Reactant_set_id>
50139760

> <Ligand InChI>
InChI=1S/C24H13Br3O3S/c25-16-9-12(10-17(26)23(16)30-11-19(28)29)20-13-5-1-2-6-14(13)22(27)24-21(20)15-7-3-4-8-18(15)31-24/h1-10H,11H2,(H,28,29)

> <Ligand InChI Key>
BOOMNQMMZXXWGF-UHFFFAOYSA-N

> <BindingDB MonomerID>
50079856

> <BindingDB Ligand Name>
CHEMBL108721::[2,6-Dibromo-4-(6-bromo-benzo[b]naphtho[2,3-d]thiophen-11-yl)-phenoxy]-acetic acid

> <Target Name>
Tyrosine-protein phosphatase non-receptor type 1

> <Target Source Organism According to Curator or DataSource>
Homo sapiens

> <IC50 (nM)>
386

> <Curation/DataSource>
ChEMBL

> <Article DOI>
10.1021/jm990260v

> <BindingDB Entry DOI>
10.7270/Q2DF6QCQ

> <PMID>
10464006

> <Authors>
Wrobel, J; Sredy, J; Moxham, C; Dietrich, A; Li, Z; Sawicki, DR; Seestaller, L; Wu, L; Katz, A; Sullivan, D; Tio, C; Zhang, ZY

> <Institution>
Wyeth-Ayerst Research

> <Link to Ligand in BindingDB>
http://www.bindingdb.org/bind/chemsearch/marvin/MolStructure.jsp?monomerid=50079856

> <Link to Ligand-Target Pair in BindingDB>
http://www.bindingdb.org/jsp/dbsearch/PrimarySearch_ki.jsp?energyterm=kJ/mole&tag=pol&polymerid=2622&target=Tyrosine-protein+phosphatase+non-receptor+type+1&column=ki&startPg=0&Increment=50&submit=Sea
rch
http://www.bindingdb.org/jsp/dbsearch/PrimarySearch_ki.jsp?energyterm=kJ/mole&tag=r21&monomerid=50079856&enzyme=Tyrosine-protein+phosphatase+non-receptor+type+1&column=ki&startPg=0&Increment=50&submit
=Search

> <PubChem CID of Ligand>
10675368

> <PubChem SID of Ligand>
103971989

> <ChEMBL ID of Ligand>
CHEMBL108721

> <ZINC ID of Ligand>
ZINC26945850

> <Number of Protein Chains in Target (bigger than 1 implies a multichain complex)>
1

> <BindingDB Target Chain Sequence>
MEMEKEFEQIDKSGSWAAIYQDIRHEASDFPCRVAKLPKNKNRNRYRDVSPFDHSRIKLHQEDNDYINASLIKMEEAQRSYILTQGPLPNTCGHFWEMVWEQKSRGVVMLNRVMEKGSLKCAQYWPQKEEKEMIFEDTNLKLTLISEDIKSYYTVRQLELENLTTQETREILHFHYTTWPDFGVPESPASFLNFLFKVRE
SGSLSPEHGPVVVHCSAGIGRSGTFCLADTCLLLMDKRKDPSSVDIKKVLLEMRKFRMGLIQTADQLRFSYLAVIEGAKFIMGDSSVQDQWKELSHEDLEPPPEHIPPPPRPPKRILEPHNGKCREFFPNHQWVKEETQEDKDCPIKEEKGSPLNAAPYGIESMSQDTEVRSRVVGGSLRGAQAASPAKGEPSLPEKDED
HALSYWKPFLVNMCVATVLTAGAYLCYRFLFNSNT

> <PDB ID(s) of Target Chain>
1BZJ,1G7G,1GFY,1JF7,1KAK,1KAV,1LQF,1NL9,1NNY,1NO6,1NZ7,1OEM,1OEO,1OES,1OET,1OEU,1OEV,1ONY,1ONZ,1PH0,1PXH,1PYN,1Q1M,1Q6J,1Q6M,1Q6N,1Q6P,1Q6S,1Q6T,1QXK,1SUG,1T48,1T49,1T4J,1WAX,1XBO,2AZR,2B07,2BGD,2BGE,
2CM2,2CM3,2CM7,2CM8,2CMA,2CMB,2CMC,2CNE,2CNF,2CNG,2CNH,2CNI,2F6T,2F6V,2F6W,2F6Y,2F6Z,2F70,2F71,2FJN,2H4G,2H4K,2HB1,2HNP,2HNQ,2QBP,2QBQ,2QBR,2QBS,2VEU,2VEV,2VEW,2VEX,2VEY,2ZMM,2ZN7,3A5J,3CWE,3D9C,3EAX,
3EB1,3EU0,3I7Z,3I80,3SME,4BJO,4I8N,4QBW,4Y14,5K9V,5K9W,5KA0,5KA1,5T19,6B90,6NTP,6W30,7KEY,7KLX,7LFO,7MN9,7MNA,8DU7,8G65,8G67,8G68,8G69,8G6A,8SKL

> <UniProt (SwissProt) Recommended Name of Target Chain>
Tyrosine-protein phosphatase non-receptor type 1

> <UniProt (SwissProt) Entry Name of Target Chain>
PTN1_HUMAN

> <UniProt (SwissProt) Primary ID of Target Chain>
P18031

> <UniProt (SwissProt) Secondary ID(s) of Target Chain>
Q5TGD8 Q9BQV9 Q9NQQ4

$$$$
Molecule
  SciTegic10242319433D

 43 47  0  0  0  0            999 V2000
    8.3800   -7.9241   -0.0007 C   0  0
    7.9499   -9.3612   -0.0005 C   0  0
    8.8621  -10.3392   -0.0001 C   0  0
    9.6799   -7.6042   -0.0005 C   0  0
   11.3930  -10.7820    0.0004 O   0  0
   10.6301   -8.6946   -0.0001 C   0  0
   10.2658   -9.9598    0.0000 C   0  0
   12.0545   -8.6586    0.0001 C   0  0
   12.4804   -9.9011    0.0004 C   0  0
   13.9017  -10.2139    0.0006 C   0  0
   14.7673   -9.1868    0.0005 C   0  0
   14.2691   -7.7673    0.0002 C   0  0
   12.9503   -7.5217    0.0000 C   0  0
    8.4487  -11.7424    0.0000 C   0  0
    7.0934  -12.0659   -0.0002 O   0  0
    9.2979  -12.6396    0.0004 O   0  0
   15.2104   -6.6203    0.0000 C   0  0
   16.7034   -6.7382    0.0001 N   0  0
   17.2636   -5.5788   -0.0001 C   0  0
   16.0999   -4.3976   -0.0004 S   0  0
   14.7541   -5.3594   -0.0002 C   0  0
   18.7123   -5.2776   -0.0001 C   0  0
   19.6350   -6.2410    0.0001 C   0  0
   21.0718   -5.8785    0.0001 C   0  0
   21.4395   -4.5946   -0.0001 C   0  0
   20.4231   -3.5483   -0.0003 C   0  0
   19.1320   -3.8712   -0.0003 C   0  0
   22.8595   -4.2204   -0.0001 C   0  0
   23.8438   -5.2026    0.0001 O   0  0
   23.1811   -3.0259   -0.0003 O   0  0
    7.6285   -7.1345   -0.0010 H   0  0
    6.8885   -9.6096   -0.0006 H   0  0
   10.0087   -6.5649   -0.0007 H   0  0
   14.2517  -11.2462    0.0009 H   0  0
   15.8394   -9.3833    0.0007 H   0  0
   12.5666   -6.5015   -0.0003 H   0  0
    6.8676  -12.6288   -0.8573 H   0  0
   13.7133   -5.0357   -0.0004 H   0  0
   19.3338   -7.2886    0.0003 H   0  0
   21.8303   -6.6614    0.0003 H   0  0
   20.7216   -2.5000   -0.0005 H   0  0
   18.3788   -3.0833   -0.0005 H   0  0
   24.4414   -5.1000   -0.8571 H   0  0
  5  9  1  0
  8  6  1  0
 14 15  1  0
 14 16  2  0
  3 14  1  0
 20 21  1  0
  7  5  1  0
  1  2  1  0
 18 19  2  0
  6  4  1  0
  8  9  2  0
  4  1  2  0
 17 18  1  0
 19 20  1  0
 21 17  2  0
 12 17  1  0
  9 10  1  0
  6  7  2  0
 22 23  2  0
 10 11  2  0
 23 24  1  0
 24 25  2  0
 11 12  1  0
 25 26  1  0
  2  3  2  0
 26 27  2  0
 27 22  1  0
 19 22  1  0
 12 13  2  0
 13  8  1  0
  3  7  1  0
 28 29  1  0
 28 30  2  0
 25 28  1  0
  1 31  1  0
  2 32  1  0
  4 33  1  0
 10 34  1  0
 11 35  1  0
 13 36  1  0
 15 37  1  0
 21 38  1  0
 23 39  1  0
 24 40  1  0
 26 41  1  0
 27 42  1  0
 29 43  1  0
M  END
> <Name>
Molecule

> <Clean Energy>
41.369

> <From>
www.bindingDB.org

> <BindingDB Reactant_set_id>
50597563

> <Ligand InChI>
InChI=1S/C23H13NO5S/c25-22(26)13-6-4-12(5-7-13)21-24-18(11-30-21)14-8-9-19-17(10-14)15-2-1-3-16(23(27)28)20(15)29-19/h1-11H,(H,25,26)(H,27,28)

> <Ligand InChI Key>
OLLCUWXYFSWOKO-UHFFFAOYSA-N

> <BindingDB MonomerID>
50326159

> <BindingDB Ligand Name>
8-[2-(4-Carboxyphenyl)thiazol-4-yl]dibenzo[b,d]furan-4-carboxylic acid::CHEMBL1242735

> <Target Name>
Tyrosine-protein phosphatase non-receptor type 1

> <Target Source Organism According to Curator or DataSource>
Homo sapiens

> <IC50 (nM)>
388

> <Curation/DataSource>
ChEMBL

> <Article DOI>
10.1016/j.ejmech.2010.05.020

> <BindingDB Entry DOI>
10.7270/Q24Q7V6S

> <PMID>
20627471

> <Authors>
Lakshminarayana, N; Prasad, YR; Gharat, L; Thomas, A; Narayanan, S; Raghuram, A; Srinivasan, CV; Gopalan, B

> <Institution>
Glenmark Research Center

> <Link to Ligand in BindingDB>
http://www.bindingdb.org/bind/chemsearch/marvin/MolStructure.jsp?monomerid=50326159

> <Link to Ligand-Target Pair in BindingDB>
http://www.bindingdb.org/jsp/dbsearch/PrimarySearch_ki.jsp?energyterm=kJ/mole&tag=pol&polymerid=2622&target=Tyrosine-protein+phosphatase+non-receptor+type+1&column=ki&startPg=0&Increment=50&submit=Sea
rch
http://www.bindingdb.org/jsp/dbsearch/PrimarySearch_ki.jsp?energyterm=kJ/mole&tag=r21&monomerid=50326159&enzyme=Tyrosine-protein+phosphatase+non-receptor+type+1&column=ki&startPg=0&Increment=50&submit
=Search

> <PubChem CID of Ligand>
46933149

> <PubChem SID of Ligand>
123105274

> <ChEMBL ID of Ligand>
CHEMBL1242735

> <ZINC ID of Ligand>
ZINC64553165

> <Number of Protein Chains in Target (bigger than 1 implies a multichain complex)>
1

> <BindingDB Target Chain Sequence>
MEMEKEFEQIDKSGSWAAIYQDIRHEASDFPCRVAKLPKNKNRNRYRDVSPFDHSRIKLHQEDNDYINASLIKMEEAQRSYILTQGPLPNTCGHFWEMVWEQKSRGVVMLNRVMEKGSLKCAQYWPQKEEKEMIFEDTNLKLTLISEDIKSYYTVRQLELENLTTQETREILHFHYTTWPDFGVPESPASFLNFLFKVRE
SGSLSPEHGPVVVHCSAGIGRSGTFCLADTCLLLMDKRKDPSSVDIKKVLLEMRKFRMGLIQTADQLRFSYLAVIEGAKFIMGDSSVQDQWKELSHEDLEPPPEHIPPPPRPPKRILEPHNGKCREFFPNHQWVKEETQEDKDCPIKEEKGSPLNAAPYGIESMSQDTEVRSRVVGGSLRGAQAASPAKGEPSLPEKDED
HALSYWKPFLVNMCVATVLTAGAYLCYRFLFNSNT

> <PDB ID(s) of Target Chain>
1BZJ,1G7G,1GFY,1JF7,1KAK,1KAV,1LQF,1NL9,1NNY,1NO6,1NZ7,1OEM,1OEO,1OES,1OET,1OEU,1OEV,1ONY,1ONZ,1PH0,1PXH,1PYN,1Q1M,1Q6J,1Q6M,1Q6N,1Q6P,1Q6S,1Q6T,1QXK,1SUG,1T48,1T49,1T4J,1WAX,1XBO,2AZR,2B07,2BGD,2BGE,
2CM2,2CM3,2CM7,2CM8,2CMA,2CMB,2CMC,2CNE,2CNF,2CNG,2CNH,2CNI,2F6T,2F6V,2F6W,2F6Y,2F6Z,2F70,2F71,2FJN,2H4G,2H4K,2HB1,2HNP,2HNQ,2QBP,2QBQ,2QBR,2QBS,2VEU,2VEV,2VEW,2VEX,2VEY,2ZMM,2ZN7,3A5J,3CWE,3D9C,3EAX,
3EB1,3EU0,3I7Z,3I80,3SME,4BJO,4I8N,4QBW,4Y14,5K9V,5K9W,5KA0,5KA1,5T19,6B90,6NTP,6W30,7KEY,7KLX,7LFO,7MN9,7MNA,8DU7,8G65,8G67,8G68,8G69,8G6A,8SKL

> <UniProt (SwissProt) Recommended Name of Target Chain>
Tyrosine-protein phosphatase non-receptor type 1

> <UniProt (SwissProt) Entry Name of Target Chain>
PTN1_HUMAN

> <UniProt (SwissProt) Primary ID of Target Chain>
P18031

> <UniProt (SwissProt) Secondary ID(s) of Target Chain>
Q5TGD8 Q9BQV9 Q9NQQ4

$$$$
Molecule
  SciTegic10242319433D

 40 44  0  0  0  0            999 V2000
    3.0528  -13.6037   -0.0007 C   0  0
    2.6294  -15.0426   -0.0003 C   0  0
    3.5463  -16.0167   -0.0003 C   0  0
    4.3511  -13.2787   -0.0003 C   0  0
    6.0763  -16.4492    0.0003 O   0  0
    5.3040  -14.3659   -0.0006 C   0  0
    4.9459  -15.6316    0.0004 C   0  0
    6.7235  -14.3229    0.0005 C   0  0
    7.1575  -15.5632    0.0001 C   0  0
    8.5797  -15.8673    0.0007 C   0  0
    9.4366  -14.8336    0.0004 C   0  0
    8.9253  -13.4189    0.0003 C   0  0
    7.6068  -13.1828   -0.0002 C   0  0
    3.1410  -17.4206    0.0000 C   0  0
    1.7882  -17.7515   -0.0002 O   0  0
    3.9958  -18.3128    0.0003 O   0  0
    9.8529  -12.2705    0.0001 C   0  0
   11.3374  -12.3866    0.0001 N   0  0
   11.8967  -11.2295   -0.0001 C   0  0
   10.7364  -10.0459   -0.0002 S   0  0
    9.3921  -11.0108   -0.0001 C   0  0
   13.3398  -10.9455   -0.0001 C   0  0
   14.2407  -11.9276   -0.0001 C   0  0
   15.6785  -11.5992   -0.0002 C   0  0
   16.0747  -10.3252   -0.0003 C   0  0
   15.0823   -9.2527   -0.0004 C   0  0
   13.7843   -9.5473   -0.0003 C   0  0
   18.0845   -9.8592   -0.0005 I   0  0
    2.2980  -12.8174   -0.0015 H   0  0
    1.5692  -15.2959    0.0000 H   0  0
    4.6763  -12.2384    0.0004 H   0  0
    8.9370  -16.8970    0.0014 H   0  0
   10.5104  -15.0209    0.0003 H   0  0
    7.2155  -12.1655   -0.0011 H   0  0
    1.5655  -18.3156   -0.8574 H   0  0
    8.3504  -10.6899   -0.0002 H   0  0
   13.9166  -12.9683    0.0001 H   0  0
   16.4191  -12.3990   -0.0001 H   0  0
   15.4049   -8.2116   -0.0005 H   0  0
   13.0469   -8.7446   -0.0004 H   0  0
 13  8  1  0
  3  7  1  0
  5  9  1  0
  8  6  1  0
 14 15  1  0
 14 16  2  0
  3 14  1  0
 20 21  1  0
  7  5  1  0
  1  2  1  0
 18 19  2  0
  6  4  1  0
  8  9  2  0
  4  1  2  0
 17 18  1  0
 19 20  1  0
 21 17  2  0
 12 17  1  0
  9 10  1  0
  6  7  2  0
 22 23  2  0
 10 11  2  0
 23 24  1  0
 24 25  2  0
 11 12  1  0
 25 26  1  0
  2  3  2  0
 26 27  2  0
 27 22  1  0
 19 22  1  0
 12 13  2  0
 25 28  1  0
  1 29  1  0
  2 30  1  0
  4 31  1  0
 10 32  1  0
 11 33  1  0
 13 34  1  0
 15 35  1  0
 21 36  1  0
 23 37  1  0
 24 38  1  0
 26 39  1  0
 27 40  1  0
M  END
> <Name>
Molecule

> <Clean Energy>
41.4575

> <From>
www.bindingDB.org

> <BindingDB Reactant_set_id>
50597565

> <Ligand InChI>
InChI=1S/C22H12INO3S/c23-14-7-4-12(5-8-14)21-24-18(11-28-21)13-6-9-19-17(10-13)15-2-1-3-16(22(25)26)20(15)27-19/h1-11H,(H,25,26)

> <Ligand InChI Key>
UMKZKFTZNZWEPR-UHFFFAOYSA-N

> <BindingDB MonomerID>
50326161

> <BindingDB Ligand Name>
8-[2-(4-Iodophenyl)thiazol-4-yl]dibenzo[b,d]furan-4-carboxylic acid::CHEMBL1242736

> <Target Name>
Tyrosine-protein phosphatase non-receptor type 1

> <Target Source Organism According to Curator or DataSource>
Homo sapiens

> <IC50 (nM)>
395

> <Curation/DataSource>
ChEMBL

> <Article DOI>
10.1016/j.ejmech.2010.05.020

> <BindingDB Entry DOI>
10.7270/Q24Q7V6S

> <PMID>
20627471

> <Authors>
Lakshminarayana, N; Prasad, YR; Gharat, L; Thomas, A; Narayanan, S; Raghuram, A; Srinivasan, CV; Gopalan, B

> <Institution>
Glenmark Research Center

> <Link to Ligand in BindingDB>
http://www.bindingdb.org/bind/chemsearch/marvin/MolStructure.jsp?monomerid=50326161

> <Link to Ligand-Target Pair in BindingDB>
http://www.bindingdb.org/jsp/dbsearch/PrimarySearch_ki.jsp?energyterm=kJ/mole&tag=pol&polymerid=2622&target=Tyrosine-protein+phosphatase+non-receptor+type+1&column=ki&startPg=0&Increment=50&submit=Sea
rch
http://www.bindingdb.org/jsp/dbsearch/PrimarySearch_ki.jsp?energyterm=kJ/mole&tag=r21&monomerid=50326161&enzyme=Tyrosine-protein+phosphatase+non-receptor+type+1&column=ki&startPg=0&Increment=50&submit
=Search

> <PubChem CID of Ligand>
46933294

> <PubChem SID of Ligand>
123105276

> <ChEMBL ID of Ligand>
CHEMBL1242736

> <ZINC ID of Ligand>
ZINC64553166

> <Number of Protein Chains in Target (bigger than 1 implies a multichain complex)>
1

> <BindingDB Target Chain Sequence>
MEMEKEFEQIDKSGSWAAIYQDIRHEASDFPCRVAKLPKNKNRNRYRDVSPFDHSRIKLHQEDNDYINASLIKMEEAQRSYILTQGPLPNTCGHFWEMVWEQKSRGVVMLNRVMEKGSLKCAQYWPQKEEKEMIFEDTNLKLTLISEDIKSYYTVRQLELENLTTQETREILHFHYTTWPDFGVPESPASFLNFLFKVRE
SGSLSPEHGPVVVHCSAGIGRSGTFCLADTCLLLMDKRKDPSSVDIKKVLLEMRKFRMGLIQTADQLRFSYLAVIEGAKFIMGDSSVQDQWKELSHEDLEPPPEHIPPPPRPPKRILEPHNGKCREFFPNHQWVKEETQEDKDCPIKEEKGSPLNAAPYGIESMSQDTEVRSRVVGGSLRGAQAASPAKGEPSLPEKDED
HALSYWKPFLVNMCVATVLTAGAYLCYRFLFNSNT

> <PDB ID(s) of Target Chain>
1BZJ,1G7G,1GFY,1JF7,1KAK,1KAV,1LQF,1NL9,1NNY,1NO6,1NZ7,1OEM,1OEO,1OES,1OET,1OEU,1OEV,1ONY,1ONZ,1PH0,1PXH,1PYN,1Q1M,1Q6J,1Q6M,1Q6N,1Q6P,1Q6S,1Q6T,1QXK,1SUG,1T48,1T49,1T4J,1WAX,1XBO,2AZR,2B07,2BGD,2BGE,
2CM2,2CM3,2CM7,2CM8,2CMA,2CMB,2CMC,2CNE,2CNF,2CNG,2CNH,2CNI,2F6T,2F6V,2F6W,2F6Y,2F6Z,2F70,2F71,2FJN,2H4G,2H4K,2HB1,2HNP,2HNQ,2QBP,2QBQ,2QBR,2QBS,2VEU,2VEV,2VEW,2VEX,2VEY,2ZMM,2ZN7,3A5J,3CWE,3D9C,3EAX,
3EB1,3EU0,3I7Z,3I80,3SME,4BJO,4I8N,4QBW,4Y14,5K9V,5K9W,5KA0,5KA1,5T19,6B90,6NTP,6W30,7KEY,7KLX,7LFO,7MN9,7MNA,8DU7,8G65,8G67,8G68,8G69,8G6A,8SKL

> <UniProt (SwissProt) Recommended Name of Target Chain>
Tyrosine-protein phosphatase non-receptor type 1

> <UniProt (SwissProt) Entry Name of Target Chain>
PTN1_HUMAN

> <UniProt (SwissProt) Primary ID of Target Chain>
P18031

> <UniProt (SwissProt) Secondary ID(s) of Target Chain>
Q5TGD8 Q9BQV9 Q9NQQ4

$$$$
Molecule
  SciTegic10242319433D

 65 70  0  0  0  0            999 V2000
   -3.0614  -17.5321   -0.2330 C   0  0
   -3.7766  -18.8066    0.0389 C   0  0
   -3.0227  -19.8861    0.2925 C   0  0
   -1.5735  -19.8278    0.3007 C   0  0
   -0.9375  -18.6946    0.0454 C   0  0
   -1.7221  -17.4790   -0.2406 C   0  0
    0.5450  -18.7082    0.0348 C   0  0
    1.2385  -19.9295    0.4546 C   0  0
    2.5683  -19.9988    0.4346 C   0  0
    3.3759  -18.8568   -0.0334 C   0  0
    2.7399  -17.7392   -0.4041 C   0  0
    1.2569  -17.6556   -0.3636 C   0  0
   -5.3447  -18.9076    0.0335 C   0  0
   -7.4967  -19.6468    0.0395 O   0  0
   -6.1319  -20.0080    0.0633 C   0  0
   -7.5579  -18.3006   -0.0047 C   0  0
   -6.2700  -17.7635   -0.0201 C   0  0
   -6.0463  -16.4629   -0.0543 C   0  0
   -7.2246  -15.5628   -0.0859 C   0  0
   -8.4627  -16.0785   -0.0728 C   0  0
   -8.6523  -17.5402   -0.0291 C   0  0
    4.8280  -18.8997   -0.1301 O   0  0
   -5.6565  -21.4807    0.1057 C   0  0
   -6.7034  -22.5798    0.0594 C   0  0
   -8.0118  -22.3274    0.0241 C   0  0
   -8.9737  -23.4342   -0.0195 C   0  0
   -8.5433  -24.6948   -0.0251 C   0  0
   -7.1098  -24.9755    0.0122 C   0  0
   -6.2379  -23.9710    0.0526 C   0  0
    5.5281  -20.1445    0.2778 C   0  0  2  0  0  0
    7.0445  -19.9468    0.1542 C   0  0
    5.1664  -21.4137   -0.5074 C   0  0
    4.4150  -21.3445   -1.4858 O   0  0
    5.5882  -22.6689   -0.0596 O   0  0
    7.8731  -20.9932    0.1943 C   0  0
    9.3211  -20.8067    0.0657 C   0  0
    9.8209  -19.5836   -0.0930 C   0  0
    8.9189  -18.4284   -0.1365 C   0  0
    7.6006  -18.5996   -0.0194 C   0  0
   -3.6351  -16.6264   -0.4294 H   0  0
   -3.5142  -20.8369    0.4988 H   0  0
   -1.0003  -20.7286    0.5199 H   0  0
   -1.2139  -16.5395   -0.4575 H   0  0
    0.6591  -20.7908    0.7870 H   0  0
    3.0655  -20.9098    0.7680 H   0  0
    3.3178  -16.8784   -0.7404 H   0  0
    0.7532  -16.7352   -0.6590 H   0  0
   -5.0316  -16.0647   -0.0592 H   0  0
   -7.0845  -14.4823   -0.1198 H   0  0
   -9.3288  -15.4170   -0.0944 H   0  0
   -9.6488  -17.9818   -0.0172 H   0  0
   -4.9947  -21.6302   -0.7474 H   0  0
   -5.0936  -21.6109    1.0300 H   0  0
   -8.3676  -21.2971    0.0276 H   0  0
  -10.0429  -23.2245   -0.0473 H   0  0
   -9.2595  -25.5158   -0.0574 H   0  0
   -6.7551  -26.0062    0.0070 H   0  0
   -5.1693  -24.1837    0.0808 H   0  0
    5.3001  -20.3262    1.3281 H   0  0
    6.6372  -22.6922   -0.0187 H   0  0
    7.4682  -21.9968    0.3240 H   0  0
    9.9877  -21.6684    0.1001 H   0  0
   10.8972  -19.4411   -0.1903 H   0  0
    9.3268  -17.4258   -0.2652 H   0  0
    6.9353  -17.7369   -0.0527 H   0  0
  4  5  2  0
 18 19  1  0
  9 10  1  0
 19 20  2  0
  2  3  2  0
 20 21  1  0
 21 16  2  0
 10 11  2  0
 10 22  1  0
  5  6  1  0
 15 23  1  0
 11 12  1  0
 23 24  1  0
 12  7  2  0
 24 25  2  0
  5  7  1  0
 25 26  1  0
 13 17  1  0
 26 27  2  0
  6  1  2  0
 27 28  1  0
  1  2  1  0
 28 29  2  0
 29 24  1  0
  3  4  1  0
 30 22  1  0
 16 14  1  0
 30 31  1  0
 14 15  1  0
 30 32  1  0
 15 13  2  0
 32 33  2  0
  2 13  1  0
 32 34  1  0
  7  8  1  0
 31 35  2  0
 35 36  1  0
 16 17  1  0
 36 37  2  0
  8  9  2  0
 37 38  1  0
 17 18  2  0
 38 39  2  0
 39 31  1  0
  1 40  1  0
  3 41  1  0
  4 42  1  0
  6 43  1  0
  8 44  1  0
  9 45  1  0
 11 46  1  0
 12 47  1  0
 18 48  1  0
 19 49  1  0
 20 50  1  0
 21 51  1  0
 23 52  1  0
 23 53  1  0
 25 54  1  0
 26 55  1  0
 27 56  1  0
 28 57  1  0
 29 58  1  0
 30 59  1  0
 34 60  1  0
 35 61  1  0
 36 62  1  0
 37 63  1  0
 38 64  1  0
 39 65  1  0
M  END
> <Name>
Molecule

> <Clean Energy>
57.0753

> <From>
www.bindingDB.org

> <BindingDB Reactant_set_id>
51015959

> <Ligand InChI>
InChI=1S/C35H26O4/c36-35(37)34(28-11-5-2-6-12-28)38-29-21-19-26(20-22-29)25-15-17-27(18-16-25)33-30-13-7-8-14-31(30)39-32(33)23-24-9-3-1-4-10-24/h1-22,34H,23H2,(H,36,37)/t34-/m1/s1

> <Ligand InChI Key>
BBLLDEJAERDDDB-UUWRZZSWSA-N

> <BindingDB MonomerID>
50410222

> <BindingDB Ligand Name>
CHEMBL193134

> <Target Name>
Tyrosine-protein phosphatase non-receptor type 1

> <Target Source Organism According to Curator or DataSource>
Homo sapiens

> <IC50 (nM)>
398.11

> <Curation/DataSource>
ChEMBL

> <Article DOI>
10.1016/j.bmcl.2010.04.033

> <BindingDB Entry DOI>
10.7270/Q27D2WCC

> <PMID>
20452766

> <Authors>
Cheng, Y; Zhou, M; Tung, CH; Ji, M; Zhang, F

> <Institution>
Tsinghua University

> <Link to Ligand in BindingDB>
http://www.bindingdb.org/bind/chemsearch/marvin/MolStructure.jsp?monomerid=50410222

> <Link to Ligand-Target Pair in BindingDB>
http://www.bindingdb.org/jsp/dbsearch/PrimarySearch_ki.jsp?energyterm=kJ/mole&tag=pol&polymerid=2622&target=Tyrosine-protein+phosphatase+non-receptor+type+1&column=ki&startPg=0&Increment=50&submit=Sea
rch
http://www.bindingdb.org/jsp/dbsearch/PrimarySearch_ki.jsp?energyterm=kJ/mole&tag=r21&monomerid=50410222&enzyme=Tyrosine-protein+phosphatase+non-receptor+type+1&column=ki&startPg=0&Increment=50&submit
=Search

> <PubChem CID of Ligand>
10649372

> <PubChem SID of Ligand>
163359246

> <ChEMBL ID of Ligand>
CHEMBL193134

> <ZINC ID of Ligand>
ZINC13806756

> <Number of Protein Chains in Target (bigger than 1 implies a multichain complex)>
1

> <BindingDB Target Chain Sequence>
MEMEKEFEQIDKSGSWAAIYQDIRHEASDFPCRVAKLPKNKNRNRYRDVSPFDHSRIKLHQEDNDYINASLIKMEEAQRSYILTQGPLPNTCGHFWEMVWEQKSRGVVMLNRVMEKGSLKCAQYWPQKEEKEMIFEDTNLKLTLISEDIKSYYTVRQLELENLTTQETREILHFHYTTWPDFGVPESPASFLNFLFKVRE
SGSLSPEHGPVVVHCSAGIGRSGTFCLADTCLLLMDKRKDPSSVDIKKVLLEMRKFRMGLIQTADQLRFSYLAVIEGAKFIMGDSSVQDQWKELSHEDLEPPPEHIPPPPRPPKRILEPHNGKCREFFPNHQWVKEETQEDKDCPIKEEKGSPLNAAPYGIESMSQDTEVRSRVVGGSLRGAQAASPAKGEPSLPEKDED
HALSYWKPFLVNMCVATVLTAGAYLCYRFLFNSNT

> <PDB ID(s) of Target Chain>
1BZJ,1G7G,1GFY,1JF7,1KAK,1KAV,1LQF,1NL9,1NNY,1NO6,1NZ7,1OEM,1OEO,1OES,1OET,1OEU,1OEV,1ONY,1ONZ,1PH0,1PXH,1PYN,1Q1M,1Q6J,1Q6M,1Q6N,1Q6P,1Q6S,1Q6T,1QXK,1SUG,1T48,1T49,1T4J,1WAX,1XBO,2AZR,2B07,2BGD,2BGE,
2CM2,2CM3,2CM7,2CM8,2CMA,2CMB,2CMC,2CNE,2CNF,2CNG,2CNH,2CNI,2F6T,2F6V,2F6W,2F6Y,2F6Z,2F70,2F71,2FJN,2H4G,2H4K,2HB1,2HNP,2HNQ,2QBP,2QBQ,2QBR,2QBS,2VEU,2VEV,2VEW,2VEX,2VEY,2ZMM,2ZN7,3A5J,3CWE,3D9C,3EAX,
3EB1,3EU0,3I7Z,3I80,3SME,4BJO,4I8N,4QBW,4Y14,5K9V,5K9W,5KA0,5KA1,5T19,6B90,6NTP,6W30,7KEY,7KLX,7LFO,7MN9,7MNA,8DU7,8G65,8G67,8G68,8G69,8G6A,8SKL

> <UniProt (SwissProt) Recommended Name of Target Chain>
Tyrosine-protein phosphatase non-receptor type 1

> <UniProt (SwissProt) Entry Name of Target Chain>
PTN1_HUMAN

> <UniProt (SwissProt) Primary ID of Target Chain>
P18031

> <UniProt (SwissProt) Secondary ID(s) of Target Chain>
Q5TGD8 Q9BQV9 Q9NQQ4

$$$$
Molecule
  SciTegic10242319433D

  8  7  0  0  0  0            999 V2000
    3.7843   -3.8996   -0.0257 V   0  0
    4.1986   -2.6741   -1.0902 O   0  0
    3.3205   -5.2727    1.1665 O   0  0
    5.1809   -3.3730    1.1163 O   0  0
    2.3884   -4.4265   -1.1674 O   0  0
    2.8526   -6.0511    0.6397 H   0  0
    6.0965   -3.4467    0.6074 H   0  0
    1.7155   -3.6296   -1.2892 H   0  0
  2  1  2  0
  3  1  1  0
  4  1  1  0
  5  1  1  0
  3  6  1  0
  4  7  1  0
  5  8  1  0
M  END
> <Name>
Molecule

> <Clean Energy>
0.188911

> <From>
www.bindingDB.org

> <BindingDB Reactant_set_id>
51237833

> <Ligand InChI>
InChI=1S/3H2O.O.V/h3*1H2;;/q;;;;+3/p-3

> <Ligand InChI Key>
WQEVDHBJGNOKKO-UHFFFAOYSA-K

> <BindingDB MonomerID>
50284960

> <BindingDB Ligand Name>
CHEMBL50626::H3VO4::Vanadiumsaeure::[VO(OH)3]::trihydrogen(tetraoxidovanadate)trihydroxidooxidovanadium::vanadic acid

> <Target Name>
Tyrosine-protein phosphatase non-receptor type 1

> <Target Source Organism According to Curator or DataSource>
Homo sapiens

> <IC50 (nM)>
400

> <Curation/DataSource>
ChEMBL

> <Article DOI>
10.1016/j.bmcl.2018.10.024

> <BindingDB Entry DOI>
10.7270/Q2QJ7MKC

> <PMID>
30342956

> <Authors>
Maccari, R; Del Corso, A; Paoli, P; Adornato, I; Lori, G; Balestri, F; Cappiello, M; Naß, A; Wolber, G; Ottanà, R

> <Institution>
University of Messina

> <Link to Ligand in BindingDB>
http://www.bindingdb.org/bind/chemsearch/marvin/MolStructure.jsp?monomerid=50284960

> <Link to Ligand-Target Pair in BindingDB>
http://www.bindingdb.org/jsp/dbsearch/PrimarySearch_ki.jsp?energyterm=kJ/mole&tag=pol&polymerid=2622&target=Tyrosine-protein+phosphatase+non-receptor+type+1&column=ki&startPg=0&Increment=50&submit=Sea
rch
http://www.bindingdb.org/jsp/dbsearch/PrimarySearch_ki.jsp?energyterm=kJ/mole&tag=r21&monomerid=50284960&enzyme=Tyrosine-protein+phosphatase+non-receptor+type+1&column=ki&startPg=0&Increment=50&submit
=Search

> <PubChem CID of Ligand>
417214

> <PubChem SID of Ligand>
104126531

> <ChEBI ID of Ligand>
27273

> <ChEMBL ID of Ligand>
CHEMBL50626

> <Number of Protein Chains in Target (bigger than 1 implies a multichain complex)>
1

> <BindingDB Target Chain Sequence>
MEMEKEFEQIDKSGSWAAIYQDIRHEASDFPCRVAKLPKNKNRNRYRDVSPFDHSRIKLHQEDNDYINASLIKMEEAQRSYILTQGPLPNTCGHFWEMVWEQKSRGVVMLNRVMEKGSLKCAQYWPQKEEKEMIFEDTNLKLTLISEDIKSYYTVRQLELENLTTQETREILHFHYTTWPDFGVPESPASFLNFLFKVRE
SGSLSPEHGPVVVHCSAGIGRSGTFCLADTCLLLMDKRKDPSSVDIKKVLLEMRKFRMGLIQTADQLRFSYLAVIEGAKFIMGDSSVQDQWKELSHEDLEPPPEHIPPPPRPPKRILEPHNGKCREFFPNHQWVKEETQEDKDCPIKEEKGSPLNAAPYGIESMSQDTEVRSRVVGGSLRGAQAASPAKGEPSLPEKDED
HALSYWKPFLVNMCVATVLTAGAYLCYRFLFNSNT

> <PDB ID(s) of Target Chain>
1BZJ,1G7G,1GFY,1JF7,1KAK,1KAV,1LQF,1NL9,1NNY,1NO6,1NZ7,1OEM,1OEO,1OES,1OET,1OEU,1OEV,1ONY,1ONZ,1PH0,1PXH,1PYN,1Q1M,1Q6J,1Q6M,1Q6N,1Q6P,1Q6S,1Q6T,1QXK,1SUG,1T48,1T49,1T4J,1WAX,1XBO,2AZR,2B07,2BGD,2BGE,
2CM2,2CM3,2CM7,2CM8,2CMA,2CMB,2CMC,2CNE,2CNF,2CNG,2CNH,2CNI,2F6T,2F6V,2F6W,2F6Y,2F6Z,2F70,2F71,2FJN,2H4G,2H4K,2HB1,2HNP,2HNQ,2QBP,2QBQ,2QBR,2QBS,2VEU,2VEV,2VEW,2VEX,2VEY,2ZMM,2ZN7,3A5J,3CWE,3D9C,3EAX,
3EB1,3EU0,3I7Z,3I80,3SME,4BJO,4I8N,4QBW,4Y14,5K9V,5K9W,5KA0,5KA1,5T19,6B90,6NTP,6W30,7KEY,7KLX,7LFO,7MN9,7MNA,8DU7,8G65,8G67,8G68,8G69,8G6A,8SKL

> <UniProt (SwissProt) Recommended Name of Target Chain>
Tyrosine-protein phosphatase non-receptor type 1

> <UniProt (SwissProt) Entry Name of Target Chain>
PTN1_HUMAN

> <UniProt (SwissProt) Primary ID of Target Chain>
P18031

> <UniProt (SwissProt) Secondary ID(s) of Target Chain>
Q5TGD8 Q9BQV9 Q9NQQ4

$$$$
Molecule
  SciTegic10242319433D

 59 59  0  0  0  0            999 V2000
   -0.5000   -1.1891   -0.0028 C   0  0  2  0  0  0
   -1.7438   -0.3619    0.0002 C   0  0
   -0.9940   -2.5727   -0.0012 C   0  0
   -2.8709   -1.1775    0.0025 O   0  0
   -2.4491   -2.5018    0.0018 C   0  0
    0.9333   -0.6758   -0.0018 C   0  0
   -1.7699    0.8740    0.0013 O   0  0
   -3.2629   -3.5563    0.0041 C   0  0
    1.1312    0.5445   -0.0006 O   0  0
   -0.3151   -3.6043   -0.0018 O   0  0
    2.1232   -1.6205   -0.0021 C   0  0
    3.4446   -0.7907   -0.0003 C   0  0
   18.7495   -0.8117   -0.0001 C   0  0
   17.4954   -1.7146   -0.0013 C   0  0
    7.2741   -1.7549    0.0000 C   0  0
    8.5623   -0.8721    0.0013 C   0  0
    9.8439   -1.7615    0.0000 C   0  0
   11.1232   -0.8700    0.0011 C   0  0
   12.4056   -1.7535   -0.0005 C   0  0
   13.6771   -0.8576    0.0006 C   0  0
   14.9569   -1.7375   -0.0010 C   0  0
   16.2197   -0.8382    0.0001 C   0  0
    4.6989   -1.7174   -0.0008 C   0  0
    6.0002   -0.8529    0.0009 C   0  0
   20.0215   -1.6845   -0.0015 C   0  0
   -0.5008   -1.1886   -1.0928 H   0  0
   -2.8486   -4.5645    0.0038 H   0  0
   -4.3432   -3.4111    0.0062 H   0  0
    2.0880   -2.2496    0.8873 H   0  0
    2.0891   -2.2476   -0.8930 H   0  0
    3.4689   -0.1609   -0.8896 H   0  0
    3.4679   -0.1632    0.8906 H   0  0
   18.7423   -0.1814   -0.8894 H   0  0
   18.7425   -0.1840    0.8909 H   0  0
   17.5023   -2.3423   -0.8924 H   0  0
   17.5025   -2.3450    0.8879 H   0  0
    7.2691   -2.3852    0.8893 H   0  0
    7.2694   -2.3829   -0.8910 H   0  0
    8.5641   -0.2417   -0.8878 H   0  0
    8.5641   -0.2444    0.8924 H   0  0
    9.8446   -2.3919    0.8892 H   0  0
    9.8444   -2.3894   -0.8911 H   0  0
   11.1213   -0.2396   -0.8881 H   0  0
   11.1217   -0.2423    0.8922 H   0  0
   12.4091   -2.3839    0.8887 H   0  0
   12.4088   -2.3812   -0.8916 H   0  0
   13.6733   -0.2272   -0.8887 H   0  0
   13.6737   -0.2299    0.8916 H   0  0
   14.9622   -2.3679    0.8882 H   0  0
   14.9619   -2.3652   -0.8921 H   0  0
   16.2146   -0.2104    0.8912 H   0  0
   16.2143   -0.2078   -0.8891 H   0  0
    4.6827   -2.3474    0.8886 H   0  0
    4.6836   -2.3452   -0.8917 H   0  0
    6.0092   -0.2253    0.8920 H   0  0
    6.0098   -0.2226   -0.8883 H   0  0
   20.9028   -1.0432   -0.0007 H   0  0
   20.0308   -2.3127   -0.8923 H   0  0
   20.0309   -2.3153    0.8874 H   0  0
  2  1  1  0
  3  1  1  0
  4  2  1  0
  5  3  1  0
  6  1  1  0
  7  2  2  0
  8  5  2  0
  9  6  2  0
 10  3  2  0
 11  6  1  0
 12 11  1  0
 13 14  1  0
 14 22  1  0
 15 24  1  0
 16 15  1  0
 17 16  1  0
 18 17  1  0
 19 18  1  0
 20 19  1  0
 21 20  1  0
 22 21  1  0
 23 12  1  0
 24 23  1  0
 25 13  1  0
  5  4  1  0
  1 26  1  0
  8 27  1  0
  8 28  1  0
 11 29  1  0
 11 30  1  0
 12 31  1  0
 12 32  1  0
 13 33  1  0
 13 34  1  0
 14 35  1  0
 14 36  1  0
 15 37  1  0
 15 38  1  0
 16 39  1  0
 16 40  1  0
 17 41  1  0
 17 42  1  0
 18 43  1  0
 18 44  1  0
 19 45  1  0
 19 46  1  0
 20 47  1  0
 20 48  1  0
 21 49  1  0
 21 50  1  0
 22 51  1  0
 22 52  1  0
 23 53  1  0
 23 54  1  0
 24 55  1  0
 24 56  1  0
 25 57  1  0
 25 58  1  0
 25 59  1  0
M  END
> <Name>
Molecule

> <Clean Energy>
25.437

> <From>
www.bindingDB.org

> <BindingDB Reactant_set_id>
50338446

> <Ligand InChI>
InChI=1S/C21H34O4/c1-3-4-5-6-7-8-9-10-11-12-13-14-15-16-18(22)19-20(23)17(2)25-21(19)24/h19H,2-16H2,1H3

> <Ligand InChI Key>
CBAJICLXNWJUJE-UHFFFAOYSA-N

> <BindingDB MonomerID>
50104677

> <BindingDB Ligand Name>
3-Hexadecanoyl-4-hydroxy-5-methylene-5H-furan-2-one::CHEMBL110642

> <Target Name>
Tyrosine-protein phosphatase non-receptor type 1

> <Target Source Organism According to Curator or DataSource>
Homo sapiens

> <IC50 (nM)>
400

> <Curation/DataSource>
ChEMBL

> <Article DOI>
10.1016/j.ejmech.2015.04.036

> <BindingDB Entry DOI>
10.7270/Q2TF002F

> <PMID>
25938987

> <Authors>
Carneiro, VM; Trivella, DB; Scorsato, V; Beraldo, VL; Dias, MP; Sobreira, TJ; Aparicio, R; Pilli, RA

> <Institution>
University of Campinas

> <Link to Ligand in BindingDB>
http://www.bindingdb.org/bind/chemsearch/marvin/MolStructure.jsp?monomerid=50104677

> <Link to Ligand-Target Pair in BindingDB>
http://www.bindingdb.org/jsp/dbsearch/PrimarySearch_ki.jsp?energyterm=kJ/mole&tag=pol&polymerid=2622&target=Tyrosine-protein+phosphatase+non-receptor+type+1&column=ki&startPg=0&Increment=50&submit=Sea
rch
http://www.bindingdb.org/jsp/dbsearch/PrimarySearch_ki.jsp?energyterm=kJ/mole&tag=r21&monomerid=50104677&enzyme=Tyrosine-protein+phosphatase+non-receptor+type+1&column=ki&startPg=0&Increment=50&submit
=Search

> <PubChem CID of Ligand>
91931748

> <PubChem SID of Ligand>
104000600

> <ChEMBL ID of Ligand>
CHEMBL110642

> <ZINC ID of Ligand>
ZINC36176154

> <Number of Protein Chains in Target (bigger than 1 implies a multichain complex)>
1

> <BindingDB Target Chain Sequence>
MEMEKEFEQIDKSGSWAAIYQDIRHEASDFPCRVAKLPKNKNRNRYRDVSPFDHSRIKLHQEDNDYINASLIKMEEAQRSYILTQGPLPNTCGHFWEMVWEQKSRGVVMLNRVMEKGSLKCAQYWPQKEEKEMIFEDTNLKLTLISEDIKSYYTVRQLELENLTTQETREILHFHYTTWPDFGVPESPASFLNFLFKVRE
SGSLSPEHGPVVVHCSAGIGRSGTFCLADTCLLLMDKRKDPSSVDIKKVLLEMRKFRMGLIQTADQLRFSYLAVIEGAKFIMGDSSVQDQWKELSHEDLEPPPEHIPPPPRPPKRILEPHNGKCREFFPNHQWVKEETQEDKDCPIKEEKGSPLNAAPYGIESMSQDTEVRSRVVGGSLRGAQAASPAKGEPSLPEKDED
HALSYWKPFLVNMCVATVLTAGAYLCYRFLFNSNT

> <PDB ID(s) of Target Chain>
1BZJ,1G7G,1GFY,1JF7,1KAK,1KAV,1LQF,1NL9,1NNY,1NO6,1NZ7,1OEM,1OEO,1OES,1OET,1OEU,1OEV,1ONY,1ONZ,1PH0,1PXH,1PYN,1Q1M,1Q6J,1Q6M,1Q6N,1Q6P,1Q6S,1Q6T,1QXK,1SUG,1T48,1T49,1T4J,1WAX,1XBO,2AZR,2B07,2BGD,2BGE,
2CM2,2CM3,2CM7,2CM8,2CMA,2CMB,2CMC,2CNE,2CNF,2CNG,2CNH,2CNI,2F6T,2F6V,2F6W,2F6Y,2F6Z,2F70,2F71,2FJN,2H4G,2H4K,2HB1,2HNP,2HNQ,2QBP,2QBQ,2QBR,2QBS,2VEU,2VEV,2VEW,2VEX,2VEY,2ZMM,2ZN7,3A5J,3CWE,3D9C,3EAX,
3EB1,3EU0,3I7Z,3I80,3SME,4BJO,4I8N,4QBW,4Y14,5K9V,5K9W,5KA0,5KA1,5T19,6B90,6NTP,6W30,7KEY,7KLX,7LFO,7MN9,7MNA,8DU7,8G65,8G67,8G68,8G69,8G6A,8SKL

> <UniProt (SwissProt) Recommended Name of Target Chain>
Tyrosine-protein phosphatase non-receptor type 1

> <UniProt (SwissProt) Entry Name of Target Chain>
PTN1_HUMAN

> <UniProt (SwissProt) Primary ID of Target Chain>
P18031

> <UniProt (SwissProt) Secondary ID(s) of Target Chain>
Q5TGD8 Q9BQV9 Q9NQQ4

$$$$
Molecule
  SciTegic10242319433D

 65 70  0  0  0  0            999 V2000
    0.8404   -5.6299    0.0013 C   0  0
    1.4642   -4.4231    0.0004 C   0  0
   -0.5576   -5.4581    0.0014 O   0  0
    0.3792   -3.4265    0.0000 C   0  0
   -0.8150   -4.1359    0.0007 C   0  0
   11.7961   -0.4620   -0.0531 C   0  0  1  0  0  0
   13.3299   -0.4865   -0.0181 C   0  0
    2.9888   -4.1107   -0.0007 C   0  0
    1.5199   -7.0139    0.0012 C   0  0
   11.2237   -1.9086    0.0312 O   0  0
    5.7479   -3.5308   -0.0073 C   0  0
    7.1545   -3.1878   -0.0089 C   0  0
   14.0072    0.5468   -0.0093 O   0  0
   11.0846    1.0046   -0.0031 C   0  0
    3.9149   -5.0807    0.0077 C   0  0
    3.4633   -2.7222   -0.0125 C   0  0
    4.7636   -2.4494   -0.0169 C   0  0
    5.3436   -4.7903    0.0060 C   0  0
    7.4609   -1.9082   -0.0457 C   0  0
    8.2306   -4.1950    0.0342 C   0  0
    9.8289   -2.3390    0.0061 C   0  0
   13.9855   -1.7120    0.0033 O   0  0
    0.6260   -8.2340    0.0007 C   0  0
    9.5086   -3.7900    0.0451 C   0  0
    8.8195   -1.4977   -0.0414 C   0  0
    0.4095   -2.0984   -0.0004 C   0  0
   -2.0056   -3.5461    0.0009 C   0  0
    9.7691    1.2023    0.0189 C   0  0
   11.9217    2.2200   -0.0103 C   0  0
   -0.7029   -8.1461    0.0004 C   0  0
    1.2614   -9.5534    0.0005 C   0  0
   -0.8859   -1.3812   -0.0003 C   0  0
   -2.0345   -2.0717    0.0003 C   0  0
   11.3796    3.4384    0.0043 C   0  0
    9.1626    2.5251    0.0384 C   0  0
    0.5183  -10.6571    0.0002 C   0  0
   -1.5217   -9.3567    0.0000 C   0  0
    9.9340    3.6020    0.0291 C   0  0
   -0.9400  -10.5542   -0.0001 C   0  0
   11.7808   -0.4765   -1.1429 H   0  0
    2.1468   -7.0689   -0.8888 H   0  0
    2.1463   -7.0693    0.8915 H   0  0
    3.5886   -6.1207    0.0162 H   0  0
    2.7412   -1.9057   -0.0178 H   0  0
    5.0990   -1.4124   -0.0277 H   0  0
    6.0708   -5.6022    0.0155 H   0  0
    6.6681   -1.1609   -0.0795 H   0  0
    7.9895   -5.2578    0.0570 H   0  0
   13.6951   -2.2500    0.8570 H   0  0
   10.3129   -4.5247    0.0826 H   0  0
    9.0374   -0.4304   -0.0794 H   0  0
    1.3547   -1.5557   -0.0007 H   0  0
   -2.9261   -4.1299    0.0015 H   0  0
    9.1138    0.3313    0.0226 H   0  0
   13.0069    2.1196   -0.0279 H   0  0
   -1.1819   -7.1671    0.0005 H   0  0
    2.3486   -9.6318    0.0007 H   0  0
   -0.9053   -0.2914   -0.0006 H   0  0
   -2.9885   -1.5444    0.0004 H   0  0
   12.0239    4.3176   -0.0024 H   0  0
    8.0778    2.6293    0.0605 H   0  0
    0.9962  -11.6367    0.0001 H   0  0
   -2.6089   -9.2790   -0.0002 H   0  0
    9.4914    4.5981    0.0400 H   0  0
   -1.5505  -11.4572   -0.0003 H   0  0
  2  1  2  0
  3  1  1  0
  4  2  1  0
  5  3  1  0
 10  6  1  0
  7  6  1  0
  8  2  1  0
  9  1  1  0
 10 21  1  0
 11 17  1  0
 12 11  1  0
 13  7  2  0
 14  6  1  0
 15  8  2  0
 16  8  1  0
 17 16  2  0
 18 15  1  0
 19 12  2  0
 20 12  1  0
 21 24  1  0
 22  7  1  0
 23  9  1  0
 24 20  2  0
 25 19  1  0
 26  4  2  0
 27  5  2  0
 28 14  2  0
 29 14  1  0
 30 23  2  0
 31 23  1  0
 32 26  1  0
 33 27  1  0
 34 29  2  0
 35 28  1  0
 36 31  2  0
 37 30  1  0
 38 34  1  0
 39 36  1  0
  4  5  1  0
 32 33  2  0
 18 11  2  0
 37 39  2  0
 21 25  2  0
 38 35  2  0
  6 40  1  0
  9 41  1  0
  9 42  1  0
 15 43  1  0
 16 44  1  0
 17 45  1  0
 18 46  1  0
 19 47  1  0
 20 48  1  0
 22 49  1  0
 24 50  1  0
 25 51  1  0
 26 52  1  0
 27 53  1  0
 28 54  1  0
 29 55  1  0
 30 56  1  0
 31 57  1  0
 32 58  1  0
 33 59  1  0
 34 60  1  0
 35 61  1  0
 36 62  1  0
 37 63  1  0
 38 64  1  0
 39 65  1  0
M  END
> <Name>
Molecule

> <Clean Energy>
60.3295

> <From>
www.bindingDB.org

> <BindingDB Reactant_set_id>
50154634

> <Ligand InChI>
InChI=1S/C35H26O4/c36-35(37)34(28-11-5-2-6-12-28)38-29-21-19-26(20-22-29)25-15-17-27(18-16-25)33-30-13-7-8-14-31(30)39-32(33)23-24-9-3-1-4-10-24/h1-22,34H,23H2,(H,36,37)

> <Ligand InChI Key>
BBLLDEJAERDDDB-UHFFFAOYSA-N

> <BindingDB MonomerID>
50086949

> <BindingDB Ligand Name>
CHEMBL25200::[4'-(2-Benzyl-benzofuran-3-yl)-biphenyl-4-yloxy]-phenyl-acetic acid

> <Target Name>
Tyrosine-protein phosphatase non-receptor type 1

> <Target Source Organism According to Curator or DataSource>
Homo sapiens

> <IC50 (nM)>
400

> <Curation/DataSource>
ChEMBL

> <Article DOI>
10.1021/jm990560c

> <BindingDB Entry DOI>
10.7270/Q2W958FT

> <PMID>
10753467

> <Authors>
Malamas, MS; Sredy, J; Moxham, C; Katz, A; Xu, W; McDevitt, R; Adebayo, FO; Sawicki, DR; Seestaller, L; Sullivan, D; Taylor, JR

> <Institution>
Wyeth-Ayerst Research

> <Link to Ligand in BindingDB>
http://www.bindingdb.org/bind/chemsearch/marvin/MolStructure.jsp?monomerid=50086949

> <Link to Ligand-Target Pair in BindingDB>
http://www.bindingdb.org/jsp/dbsearch/PrimarySearch_ki.jsp?energyterm=kJ/mole&tag=pol&polymerid=2622&target=Tyrosine-protein+phosphatase+non-receptor+type+1&column=ki&startPg=0&Increment=50&submit=Sea
rch
http://www.bindingdb.org/jsp/dbsearch/PrimarySearch_ki.jsp?energyterm=kJ/mole&tag=r21&monomerid=50086949&enzyme=Tyrosine-protein+phosphatase+non-receptor+type+1&column=ki&startPg=0&Increment=50&submit
=Search

> <PubChem CID of Ligand>
22462583

> <PubChem SID of Ligand>
103986060

> <ChEMBL ID of Ligand>
CHEMBL25200

> <ZINC ID of Ligand>
ZINC28757905

> <Number of Protein Chains in Target (bigger than 1 implies a multichain complex)>
1

> <BindingDB Target Chain Sequence>
MEMEKEFEQIDKSGSWAAIYQDIRHEASDFPCRVAKLPKNKNRNRYRDVSPFDHSRIKLHQEDNDYINASLIKMEEAQRSYILTQGPLPNTCGHFWEMVWEQKSRGVVMLNRVMEKGSLKCAQYWPQKEEKEMIFEDTNLKLTLISEDIKSYYTVRQLELENLTTQETREILHFHYTTWPDFGVPESPASFLNFLFKVRE
SGSLSPEHGPVVVHCSAGIGRSGTFCLADTCLLLMDKRKDPSSVDIKKVLLEMRKFRMGLIQTADQLRFSYLAVIEGAKFIMGDSSVQDQWKELSHEDLEPPPEHIPPPPRPPKRILEPHNGKCREFFPNHQWVKEETQEDKDCPIKEEKGSPLNAAPYGIESMSQDTEVRSRVVGGSLRGAQAASPAKGEPSLPEKDED
HALSYWKPFLVNMCVATVLTAGAYLCYRFLFNSNT

> <PDB ID(s) of Target Chain>
1BZJ,1G7G,1GFY,1JF7,1KAK,1KAV,1LQF,1NL9,1NNY,1NO6,1NZ7,1OEM,1OEO,1OES,1OET,1OEU,1OEV,1ONY,1ONZ,1PH0,1PXH,1PYN,1Q1M,1Q6J,1Q6M,1Q6N,1Q6P,1Q6S,1Q6T,1QXK,1SUG,1T48,1T49,1T4J,1WAX,1XBO,2AZR,2B07,2BGD,2BGE,
2CM2,2CM3,2CM7,2CM8,2CMA,2CMB,2CMC,2CNE,2CNF,2CNG,2CNH,2CNI,2F6T,2F6V,2F6W,2F6Y,2F6Z,2F70,2F71,2FJN,2H4G,2H4K,2HB1,2HNP,2HNQ,2QBP,2QBQ,2QBR,2QBS,2VEU,2VEV,2VEW,2VEX,2VEY,2ZMM,2ZN7,3A5J,3CWE,3D9C,3EAX,
3EB1,3EU0,3I7Z,3I80,3SME,4BJO,4I8N,4QBW,4Y14,5K9V,5K9W,5KA0,5KA1,5T19,6B90,6NTP,6W30,7KEY,7KLX,7LFO,7MN9,7MNA,8DU7,8G65,8G67,8G68,8G69,8G6A,8SKL

> <UniProt (SwissProt) Recommended Name of Target Chain>
Tyrosine-protein phosphatase non-receptor type 1

> <UniProt (SwissProt) Entry Name of Target Chain>
PTN1_HUMAN

> <UniProt (SwissProt) Primary ID of Target Chain>
P18031

> <UniProt (SwissProt) Secondary ID(s) of Target Chain>
Q5TGD8 Q9BQV9 Q9NQQ4

$$$$
Molecule
  SciTegic10242319433D

 57 59  0  0  0  0            999 V2000
   -2.4172    0.5694   -0.0006 C   0  0
   -2.4831   -0.7602    0.0000 C   0  0
   -1.2020   -1.5493   -0.0004 C   0  0
   -1.1279    1.2507   -0.0001 C   0  0
    0.0021    0.5507   -0.0003 C   0  0
   -0.0336   -0.8955    0.0004 C   0  0
    1.2373   -1.6047    0.0001 C   0  0
    2.5019   -0.8018    0.0002 C   0  0
    2.4040    0.5315    0.0000 C   0  0
    1.1993    1.2003    0.0000 O   0  0
    1.2471   -2.8403    0.0003 O   0  0
    3.8736   -1.4741    0.0002 C   0  0
    3.9359   -2.8037    0.0002 C   0  0
    5.2030   -3.4989    0.0002 C   0  0
    6.3414   -2.8191    0.0002 C   0  0
    6.3482   -1.3575    0.0002 C   0  0
    5.1733   -0.6878    0.0002 C   0  0
   -1.1987   -2.9414    0.0001 O   0  0
   -3.5910    1.3151   -0.0005 O   0  0
   -3.8866   -1.3818   -0.0004 C   0  0
   -3.9400   -2.8837   -0.0002 C   0  0
   -5.1164   -3.5127   -0.0003 C   0  0
   -5.1623   -5.0126   -0.0001 C   0  0
   -6.4015   -2.7269   -0.0005 C   0  0
    5.1406    0.7039    0.0002 O   0  0
    7.5501   -3.5064    0.0002 O   0  0
    7.7504   -0.7073    0.0002 C   0  0
    7.8326    0.7955   -0.0001 C   0  0
    9.0236    1.3967    0.0003 C   0  0
    9.1059    2.8947    0.0000 C   0  0
   10.2898    0.5799    0.0009 C   0  0
   -1.0906    2.3400    0.0005 H   0  0
    3.3225    1.1185   -0.0001 H   0  0
    3.0112   -3.3807    0.0002 H   0  0
    5.2229   -4.5888    0.0002 H   0  0
   -1.6921   -3.2928    0.8578 H   0  0
   -4.1526    1.0849   -0.8574 H   0  0
   -4.4080   -1.0292    0.8895 H   0  0
   -4.4073   -1.0295   -0.8908 H   0  0
   -3.0151   -3.4605    0.0000 H   0  0
   -6.2004   -5.3449   -0.0002 H   0  0
   -4.6601   -5.3919    0.8899 H   0  0
   -4.6598   -5.3921   -0.8898 H   0  0
   -7.2478   -3.4137   -0.0005 H   0  0
   -6.4438   -2.0989   -0.8905 H   0  0
   -6.4440   -2.0987    0.8893 H   0  0
    5.6270    1.0660    0.8574 H   0  0
    7.6101   -4.1098    0.8574 H   0  0
    8.2711   -1.0600    0.8905 H   0  0
    8.2713   -1.0603   -0.8898 H   0  0
    6.9202    1.3919   -0.0005 H   0  0
   10.1518    3.2016    0.0003 H   0  0
    8.6126    3.2863    0.8896 H   0  0
    8.6133    3.2860   -0.8902 H   0  0
   11.1525    1.2460    0.0011 H   0  0
   10.3174   -0.0492   -0.8888 H   0  0
   10.3168   -0.0488    0.8909 H   0  0
  1  2  2  0
  2  3  1  0
  3  6  2  0
  5  4  2  0
  4  1  1  0
  5  6  1  0
  5 10  1  0
  6  7  1  0
  7  8  1  0
  8  9  2  0
  9 10  1  0
  7 11  2  0
 12 13  2  0
 13 14  1  0
 14 15  2  0
 15 16  1  0
 16 17  2  0
 17 12  1  0
  8 12  1  0
  3 18  1  0
  1 19  1  0
  2 20  1  0
 20 21  1  0
 21 22  2  0
 22 23  1  0
 22 24  1  0
 17 25  1  0
 15 26  1  0
 16 27  1  0
 27 28  1  0
 28 29  2  0
 29 30  1  0
 29 31  1  0
  4 32  1  0
  9 33  1  0
 13 34  1  0
 14 35  1  0
 18 36  1  0
 19 37  1  0
 20 38  1  0
 20 39  1  0
 21 40  1  0
 23 41  1  0
 23 42  1  0
 23 43  1  0
 24 44  1  0
 24 45  1  0
 24 46  1  0
 25 47  1  0
 26 48  1  0
 27 49  1  0
 27 50  1  0
 28 51  1  0
 30 52  1  0
 30 53  1  0
 30 54  1  0
 31 55  1  0
 31 56  1  0
 31 57  1  0
M  END
> <Name>
Molecule

> <Clean Energy>
5.21842

> <From>
www.bindingDB.org

> <BindingDB Reactant_set_id>
50497688

> <Ligand InChI>
InChI=1S/C25H26O6/c1-13(2)5-7-16-19(26)10-9-15(23(16)28)18-12-31-21-11-20(27)17(8-6-14(3)4)24(29)22(21)25(18)30/h5-6,9-12,26-29H,7-8H2,1-4H3

> <Ligand InChI Key>
KKFAKKIIFUFASS-UHFFFAOYSA-N

> <BindingDB MonomerID>
50172094

> <BindingDB Ligand Name>
CHEMBL3808919

> <Target Name>
Tyrosine-protein phosphatase non-receptor type 1

> <Target Source Organism According to Curator or DataSource>
Homo sapiens

> <IC50 (nM)>
400

> <Curation/DataSource>
ChEMBL

> <Article DOI>
10.1021/acs.jnatprod.5b00877

> <BindingDB Entry DOI>
10.7270/Q20V8FPM

> <PMID>
26841168

> <Authors>
Ji, S; Li, Z; Song, W; Wang, Y; Liang, W; Li, K; Tang, S; Wang, Q; Qiao, X; Zhou, D; Yu, S; Ye, M

> <Institution>
Peking University

> <Link to Ligand in BindingDB>
http://www.bindingdb.org/bind/chemsearch/marvin/MolStructure.jsp?monomerid=50172094

> <Link to Ligand-Target Pair in BindingDB>
http://www.bindingdb.org/jsp/dbsearch/PrimarySearch_ki.jsp?energyterm=kJ/mole&tag=pol&polymerid=2622&target=Tyrosine-protein+phosphatase+non-receptor+type+1&column=ki&startPg=0&Increment=50&submit=Sea
rch
http://www.bindingdb.org/jsp/dbsearch/PrimarySearch_ki.jsp?energyterm=kJ/mole&tag=r21&monomerid=50172094&enzyme=Tyrosine-protein+phosphatase+non-receptor+type+1&column=ki&startPg=0&Increment=50&submit
=Search

> <PubChem CID of Ligand>
15664151

> <PubChem SID of Ligand>
346548601

> <ChEMBL ID of Ligand>
CHEMBL3808919

> <Number of Protein Chains in Target (bigger than 1 implies a multichain complex)>
1

> <BindingDB Target Chain Sequence>
MEMEKEFEQIDKSGSWAAIYQDIRHEASDFPCRVAKLPKNKNRNRYRDVSPFDHSRIKLHQEDNDYINASLIKMEEAQRSYILTQGPLPNTCGHFWEMVWEQKSRGVVMLNRVMEKGSLKCAQYWPQKEEKEMIFEDTNLKLTLISEDIKSYYTVRQLELENLTTQETREILHFHYTTWPDFGVPESPASFLNFLFKVRE
SGSLSPEHGPVVVHCSAGIGRSGTFCLADTCLLLMDKRKDPSSVDIKKVLLEMRKFRMGLIQTADQLRFSYLAVIEGAKFIMGDSSVQDQWKELSHEDLEPPPEHIPPPPRPPKRILEPHNGKCREFFPNHQWVKEETQEDKDCPIKEEKGSPLNAAPYGIESMSQDTEVRSRVVGGSLRGAQAASPAKGEPSLPEKDED
HALSYWKPFLVNMCVATVLTAGAYLCYRFLFNSNT

> <PDB ID(s) of Target Chain>
1BZJ,1G7G,1GFY,1JF7,1KAK,1KAV,1LQF,1NL9,1NNY,1NO6,1NZ7,1OEM,1OEO,1OES,1OET,1OEU,1OEV,1ONY,1ONZ,1PH0,1PXH,1PYN,1Q1M,1Q6J,1Q6M,1Q6N,1Q6P,1Q6S,1Q6T,1QXK,1SUG,1T48,1T49,1T4J,1WAX,1XBO,2AZR,2B07,2BGD,2BGE,
2CM2,2CM3,2CM7,2CM8,2CMA,2CMB,2CMC,2CNE,2CNF,2CNG,2CNH,2CNI,2F6T,2F6V,2F6W,2F6Y,2F6Z,2F70,2F71,2FJN,2H4G,2H4K,2HB1,2HNP,2HNQ,2QBP,2QBQ,2QBR,2QBS,2VEU,2VEV,2VEW,2VEX,2VEY,2ZMM,2ZN7,3A5J,3CWE,3D9C,3EAX,
3EB1,3EU0,3I7Z,3I80,3SME,4BJO,4I8N,4QBW,4Y14,5K9V,5K9W,5KA0,5KA1,5T19,6B90,6NTP,6W30,7KEY,7KLX,7LFO,7MN9,7MNA,8DU7,8G65,8G67,8G68,8G69,8G6A,8SKL

> <UniProt (SwissProt) Recommended Name of Target Chain>
Tyrosine-protein phosphatase non-receptor type 1

> <UniProt (SwissProt) Entry Name of Target Chain>
PTN1_HUMAN

> <UniProt (SwissProt) Primary ID of Target Chain>
P18031

> <UniProt (SwissProt) Secondary ID(s) of Target Chain>
Q5TGD8 Q9BQV9 Q9NQQ4

$$$$
Molecule
  SciTegic10242319433D

 67 67  0  0  0  0            999 V2000
    1.8226   -3.6310    0.4041 C   0  0  1  0  0  0
    2.1868   -2.1504    0.2538 C   0  0
    1.0963   -1.4254    0.0905 C   0  0
   -0.0325   -2.3485    0.0366 C   0  0
    0.4315   -3.6481    0.1061 O   0  0
   -1.2072   -2.0419   -0.1465 O   0  0
    1.0240    0.0969   -0.0349 C   0  0
    2.0849    0.7410    0.0010 O   0  0
   -0.3243    0.8645   -0.1199 C   0  0
   -0.1482    2.4493   -0.0667 C   0  0
   -1.5561    3.2051   -0.0970 C   0  0
   -1.4137    4.7956   -0.0354 C   0  0
   -2.8349    5.5261   -0.0535 C   0  0
   -2.7120    7.1160   -0.0058 C   0  0
   -4.1377    7.8270   -0.0242 C   0  0
   -4.0214    9.4114    0.0082 C   0  0
   -5.4451   10.1080   -0.0109 C   0  0
   -5.3243   11.6825    0.0109 C   0  0
   -6.7405   12.3689   -0.0070 C   0  0
   -6.6068   13.9300    0.0092 C   0  0
   -8.0118   14.6093   -0.0062 C   0  0
   -7.8604   16.1556    0.0082 C   0  0
   -9.2527   16.8297   -0.0051 C   0  0
    3.4880   -1.6514    0.3255 O   0  0
    2.7478   -4.7296   -0.1995 C   0  0
    2.2235   -6.0293    0.1890 O   0  0
    3.1004   -7.1048   -0.0985 C   0  0
    2.7575   -8.2595    0.1870 O   0  0
    4.4536   -6.8714   -0.7195 C   0  0
    1.8663   -3.8078    1.4788 H   0  0
   -0.8142    0.6016   -1.0575 H   0  0
   -0.9514    0.5572    0.7170 H   0  0
    0.3750    2.7152    0.8518 H   0  0
    0.4414    2.7676   -0.9264 H   0  0
   -2.0733    2.9384   -1.0187 H   0  0
   -2.1451    2.8760    0.7591 H   0  0
   -0.8907    5.0665    0.8817 H   0  0
   -0.8353    5.1304   -0.8965 H   0  0
   -3.3597    5.2445   -0.9664 H   0  0
   -3.4079    5.1948    0.8125 H   0  0
   -2.1888    7.4009    0.9070 H   0  0
   -2.1411    7.4506   -0.8719 H   0  0
   -4.6645    7.5328   -0.9319 H   0  0
   -4.7041    7.4993    0.8476 H   0  0
   -3.4961    9.7077    0.9162 H   0  0
   -3.4559    9.7411   -0.8633 H   0  0
   -5.9736    9.8067   -0.9153 H   0  0
   -6.0083    9.7848    0.8645 H   0  0
   -4.7956   11.9848    0.9148 H   0  0
   -4.7624   12.0068   -0.8650 H   0  0
   -7.2722   12.0659   -0.9090 H   0  0
   -7.3024   12.0500    0.8709 H   0  0
   -6.0739   14.2331    0.9104 H   0  0
   -6.0466   14.2493   -0.8695 H   0  0
   -8.5472   14.3084   -0.9067 H   0  0
   -8.5734   14.2944    0.8734 H   0  0
   -7.3237   16.4562    0.9080 H   0  0
   -7.2999   16.4704   -0.8721 H   0  0
   -9.1326   17.9130    0.0052 H   0  0
   -9.8159   16.5188    0.8749 H   0  0
   -9.7921   16.5330   -0.9046 H   0  0
    3.8984   -1.8765    1.2655 H   0  0
    2.7588   -4.6462   -1.2863 H   0  0
    3.7608   -4.6106    0.1848 H   0  0
    4.9614   -7.8263   -0.8548 H   0  0
    5.0487   -6.2335   -0.0659 H   0  0
    4.3308   -6.3853   -1.6874 H   0  0
  1  2  1  0
  2  3  2  0
  3  4  1  0
  4  5  1  0
  5  1  1  0
  4  6  2  0
  3  7  1  0
  7  8  2  0
  7  9  1  0
  9 10  1  0
 10 11  1  0
 11 12  1  0
 12 13  1  0
 13 14  1  0
 14 15  1  0
 15 16  1  0
 16 17  1  0
 17 18  1  0
 18 19  1  0
 19 20  1  0
 20 21  1  0
 21 22  1  0
 22 23  1  0
  2 24  1  0
  1 25  1  0
 25 26  1  0
 26 27  1  0
 27 28  2  0
 27 29  1  0
  1 30  1  0
  9 31  1  0
  9 32  1  0
 10 33  1  0
 10 34  1  0
 11 35  1  0
 11 36  1  0
 12 37  1  0
 12 38  1  0
 13 39  1  0
 13 40  1  0
 14 41  1  0
 14 42  1  0
 15 43  1  0
 15 44  1  0
 16 45  1  0
 16 46  1  0
 17 47  1  0
 17 48  1  0
 18 49  1  0
 18 50  1  0
 19 51  1  0
 19 52  1  0
 20 53  1  0
 20 54  1  0
 21 55  1  0
 21 56  1  0
 22 57  1  0
 22 58  1  0
 23 59  1  0
 23 60  1  0
 23 61  1  0
 24 62  1  0
 25 63  1  0
 25 64  1  0
 29 65  1  0
 29 66  1  0
 29 67  1  0
M  END
> <Name>
Molecule

> <Clean Energy>
27.313

> <From>
www.bindingDB.org

> <BindingDB Reactant_set_id>
50338449

> <Ligand InChI>
InChI=1S/C23H38O6/c1-3-4-5-6-7-8-9-10-11-12-13-14-15-16-19(25)21-22(26)20(29-23(21)27)17-28-18(2)24/h20,26H,3-17H2,1-2H3

> <Ligand InChI Key>
KSVVYWFYWZBJDR-UHFFFAOYSA-N

> <BindingDB MonomerID>
50088048

> <BindingDB Ligand Name>
CHEMBL3427125

> <Target Name>
Tyrosine-protein phosphatase non-receptor type 1

> <Target Source Organism According to Curator or DataSource>
Homo sapiens

> <IC50 (nM)>
400

> <Curation/DataSource>
ChEMBL

> <Article DOI>
10.1016/j.ejmech.2015.04.036

> <BindingDB Entry DOI>
10.7270/Q2TF002F

> <PMID>
25938987

> <Authors>
Carneiro, VM; Trivella, DB; Scorsato, V; Beraldo, VL; Dias, MP; Sobreira, TJ; Aparicio, R; Pilli, RA

> <Institution>
University of Campinas

> <Link to Ligand in BindingDB>
http://www.bindingdb.org/bind/chemsearch/marvin/MolStructure.jsp?monomerid=50088048

> <Link to Ligand-Target Pair in BindingDB>
http://www.bindingdb.org/jsp/dbsearch/PrimarySearch_ki.jsp?energyterm=kJ/mole&tag=pol&polymerid=2622&target=Tyrosine-protein+phosphatase+non-receptor+type+1&column=ki&startPg=0&Increment=50&submit=Sea
rch
http://www.bindingdb.org/jsp/dbsearch/PrimarySearch_ki.jsp?energyterm=kJ/mole&tag=r21&monomerid=50088048&enzyme=Tyrosine-protein+phosphatase+non-receptor+type+1&column=ki&startPg=0&Increment=50&submit
=Search

> <PubChem CID of Ligand>
70240311

> <PubChem SID of Ligand>
313083685

> <ChEMBL ID of Ligand>
CHEMBL3427125

> <Number of Protein Chains in Target (bigger than 1 implies a multichain complex)>
1

> <BindingDB Target Chain Sequence>
MEMEKEFEQIDKSGSWAAIYQDIRHEASDFPCRVAKLPKNKNRNRYRDVSPFDHSRIKLHQEDNDYINASLIKMEEAQRSYILTQGPLPNTCGHFWEMVWEQKSRGVVMLNRVMEKGSLKCAQYWPQKEEKEMIFEDTNLKLTLISEDIKSYYTVRQLELENLTTQETREILHFHYTTWPDFGVPESPASFLNFLFKVRE
SGSLSPEHGPVVVHCSAGIGRSGTFCLADTCLLLMDKRKDPSSVDIKKVLLEMRKFRMGLIQTADQLRFSYLAVIEGAKFIMGDSSVQDQWKELSHEDLEPPPEHIPPPPRPPKRILEPHNGKCREFFPNHQWVKEETQEDKDCPIKEEKGSPLNAAPYGIESMSQDTEVRSRVVGGSLRGAQAASPAKGEPSLPEKDED
HALSYWKPFLVNMCVATVLTAGAYLCYRFLFNSNT

> <PDB ID(s) of Target Chain>
1BZJ,1G7G,1GFY,1JF7,1KAK,1KAV,1LQF,1NL9,1NNY,1NO6,1NZ7,1OEM,1OEO,1OES,1OET,1OEU,1OEV,1ONY,1ONZ,1PH0,1PXH,1PYN,1Q1M,1Q6J,1Q6M,1Q6N,1Q6P,1Q6S,1Q6T,1QXK,1SUG,1T48,1T49,1T4J,1WAX,1XBO,2AZR,2B07,2BGD,2BGE,
2CM2,2CM3,2CM7,2CM8,2CMA,2CMB,2CMC,2CNE,2CNF,2CNG,2CNH,2CNI,2F6T,2F6V,2F6W,2F6Y,2F6Z,2F70,2F71,2FJN,2H4G,2H4K,2HB1,2HNP,2HNQ,2QBP,2QBQ,2QBR,2QBS,2VEU,2VEV,2VEW,2VEX,2VEY,2ZMM,2ZN7,3A5J,3CWE,3D9C,3EAX,
3EB1,3EU0,3I7Z,3I80,3SME,4BJO,4I8N,4QBW,4Y14,5K9V,5K9W,5KA0,5KA1,5T19,6B90,6NTP,6W30,7KEY,7KLX,7LFO,7MN9,7MNA,8DU7,8G65,8G67,8G68,8G69,8G6A,8SKL

> <UniProt (SwissProt) Recommended Name of Target Chain>
Tyrosine-protein phosphatase non-receptor type 1

> <UniProt (SwissProt) Entry Name of Target Chain>
PTN1_HUMAN

> <UniProt (SwissProt) Primary ID of Target Chain>
P18031

> <UniProt (SwissProt) Secondary ID(s) of Target Chain>
Q5TGD8 Q9BQV9 Q9NQQ4

$$$$
Molecule
  SciTegic10242319433D

 77 82  0  0  0  0            999 V2000
   -1.5385    3.5215    0.2868 C   0  0
   -2.7636    2.9626    0.6275 C   0  0
   -2.8883    1.6249    0.9820 C   0  0
   -1.7004    0.8809    1.0291 C   0  0
   -0.4600    1.4074    0.6497 C   0  0
   -0.3939    2.7398    0.2741 C   0  0
    0.6960    0.6152    0.5857 C   0  0
    1.9107    1.1609    0.1458 C   0  0
    1.9552    2.5135   -0.1993 C   0  0
    0.8099    3.2926   -0.1331 C   0  0
    3.5678    3.3509   -0.7942 Br  0  0
    3.2226    0.3211   -0.0076 C   0  0
    4.1475    0.8026    0.8952 F   0  0
    3.0957   -1.3311    0.1660 P   0  0
    3.7352    0.5570   -1.2685 F   0  0
   -4.3652    0.9215    1.2909 C   0  0
   -5.6309    0.8208    0.1193 C   0  0  1  0  0  0
   -6.9337    0.1474    0.8031 C   0  0
   -6.0016    2.3703   -0.2238 N   0  0
   -5.0629    3.1907   -0.5189 N   0  0
   -5.4444    4.3900   -0.6766 N   0  0
   -6.7559    4.3948   -0.4915 C   0  0
   -7.1176    3.1049   -0.2280 C   0  0
   -8.4864    2.8456   -0.0043 C   0  0
   -9.3878    3.9024   -0.0477 C   0  0
   -8.9692    5.2103   -0.3019 C   0  0
   -7.6181    5.4701   -0.5363 C   0  0
   -7.4054   -1.2268    0.6520 C   0  0
   -7.7258    0.8615    1.4048 O   0  0
   -8.7251   -1.4541    0.2680 C   0  0
   -9.2210   -2.7484    0.1484 C   0  0
   -8.4035   -3.8274    0.4468 C   0  0
   -7.1069   -3.5879    0.8701 C   0  0
   -6.6047   -2.3018    0.9749 C   0  0
    4.5099   -1.9418   -0.0699 O   0  0
    2.2280   -1.8400   -0.7793 O   0  0
    2.6136   -1.7058    1.5842 O   0  0
   -5.0628   -0.0766   -1.2458 C   0  0
   -4.0743   -1.3836   -1.0097 C   0  0
   -4.3508   -2.7667   -0.9111 C   0  0
   -3.3278   -3.7003   -0.6039 C   0  0
   -2.0223   -3.2325   -0.4134 C   0  0
   -1.7444   -1.8992   -0.5881 C   0  0
   -2.7549   -1.0177   -0.8966 C   0  0
   -0.5212   -4.3242    0.0576 Br  0  0
   -3.5332   -5.2795   -0.5098 C   0  0
   -2.7154   -5.8338    0.4406 F   0  0
   -5.0148   -5.9289   -0.2196 P   0  0
   -3.1236   -5.7508   -1.7326 F   0  0
   -4.8757   -7.4692   -0.3415 O   0  0
   -5.9444   -5.4836   -1.1365 O   0  0
   -5.4262   -5.6280    1.2335 O   0  0
   -1.4770    4.5786    0.0284 H   0  0
   -3.6534    3.5920    0.6165 H   0  0
   -1.7448   -0.1515    1.3759 H   0  0
    0.6498   -0.4332    0.8804 H   0  0
    0.8568    4.3475   -0.4033 H   0  0
   -4.1509   -0.1050    1.5882 H   0  0
   -4.7841    1.4656    2.1373 H   0  0
   -8.8315    1.8319    0.1994 H   0  0
  -10.4466    3.7059    0.1206 H   0  0
   -9.6941    6.0242   -0.3172 H   0  0
   -7.2603    6.4782   -0.7455 H   0  0
   -9.3778   -0.6066    0.0586 H   0  0
  -10.2477   -2.9133   -0.1785 H   0  0
   -8.7751   -4.8476    0.3499 H   0  0
   -6.4665   -4.4318    1.1268 H   0  0
   -5.5806   -2.1399    1.3113 H   0  0
    4.8388   -1.7007   -1.0375 H   0  0
    3.2986   -1.3456    2.2939 H   0  0
   -5.9439   -0.4377   -1.7764 H   0  0
   -4.5174    0.6225   -1.8797 H   0  0
   -5.3683   -3.1219   -1.0741 H   0  0
   -0.7213   -1.5384   -0.4823 H   0  0
   -2.4943    0.0280   -1.0602 H   0  0
   -4.5484   -7.7162   -1.3082 H   0  0
   -4.7235   -6.0483    1.8909 H   0  0
  1  2  4  0
  1  6  4  0
  2  3  4  0
  3  4  4  0
  4  5  4  0
  5  7  4  0
  6  5  4  0
  6 10  4  0
  7  8  4  0
  8  9  4  0
  9 10  4  0
  9 11  1  0
  8 12  1  0
 12 13  1  0
 12 14  1  0
 12 15  1  0
  3 16  1  0
 16 17  1  0
 17 18  1  0
 17 19  1  0
 19 20  4  0
 19 23  4  0
 20 21  4  0
 21 22  4  0
 22 27  4  0
 22 23  4  0
 23 24  4  0
 24 25  4  0
 25 26  4  0
 26 27  4  0
 18 28  1  0
 18 29  2  0
 28 30  4  0
 28 34  4  0
 30 31  4  0
 31 32  4  0
 32 33  4  0
 33 34  4  0
 14 35  1  0
 14 36  2  0
 14 37  1  0
 17 38  1  0
 38 39  1  0
 39 40  4  0
 39 44  4  0
 40 41  4  0
 41 42  4  0
 42 43  4  0
 43 44  4  0
 42 45  1  0
 41 46  1  0
 46 47  1  0
 46 48  1  0
 46 49  1  0
 48 50  1  0
 48 51  2  0
 48 52  1  0
  1 53  1  0
  2 54  1  0
  4 55  1  0
  7 56  1  0
 10 57  1  0
 16 58  1  0
 16 59  1  0
 24 60  1  0
 25 61  1  0
 26 62  1  0
 27 63  1  0
 30 64  1  0
 31 65  1  0
 32 66  1  0
 33 67  1  0
 34 68  1  0
 35 69  1  0
 37 70  1  0
 38 71  1  0
 38 72  1  0
 40 73  1  0
 43 74  1  0
 44 75  1  0
 50 76  1  0
 52 77  1  0
M  END
> <Name>
Molecule

> <Clean Energy>
169.863

> <From>
www.bindingDB.org

> <BindingDB Reactant_set_id>
253397

> <Ligand InChI>
InChI=1S/C34H25Br2F4N3O7P2/c35-27-13-11-21(15-25(27)33(37,38)51(45,46)47)19-32(31(44)22-6-2-1-3-7-22,43-30-9-5-4-8-29(30)41-42-43)18-20-10-12-23-17-28(36)26(16-24(23)14-20)34(39,40)52(48,49)50/h1-17H,
18-19H2,(H2,45,46,47)(H2,48,49,50)

> <Ligand InChI Key>
WVCFOFVFXLENCP-UHFFFAOYSA-N

> <BindingDB MonomerID>
124210

> <BindingDB Ligand Name>
({7-[2-(1H-1,2,3-benzotriazol-1-yl)-2-({4-bromo-3-[difluoro(phosphono)methyl]phenyl}methyl)-3-oxo-3-phenylpropyl]-3-bromonaphthalen-2-yl}difluoromethyl)phosphonic acid (10c)

> <Target Name>
Tyrosine-protein phosphatase non-receptor type 1

> <Target Source Organism According to Curator or DataSource>
Homo sapiens

> <IC50 (nM)>
404

> <Curation/DataSource>
Curated from the literature by BindingDB

> <Article DOI>
10.1002/cmdc.201100077

> <BindingDB Entry DOI>
10.7270/Q2XW4HGZ

> <PMID>
21506278

> <PubChem AID>
aid1800514

> <Authors>
Patel, D; Jain, M; Shah, SR; Bahekar, R; Jadav, P; Darji, B; Siriki, Y; Bandyopadhyay, D; Joharapurkar, A; Kshirsagar, S; Patel, H; Shaikh, M; Sairam, KV; Patel, P

> <Institution>
Zydus Research Centre

> <Link to Ligand in BindingDB>
http://www.bindingdb.org/bind/chemsearch/marvin/MolStructure.jsp?monomerid=124210

> <Link to Ligand-Target Pair in BindingDB>
http://www.bindingdb.org/jsp/dbsearch/PrimarySearch_ki.jsp?energyterm=kJ/mole&tag=pol&polymerid=2622&target=Tyrosine-protein+phosphatase+non-receptor+type+1&column=ki&startPg=0&Increment=50&submit=Sea
rch
http://www.bindingdb.org/jsp/dbsearch/PrimarySearch_ki.jsp?energyterm=kJ/mole&tag=r21&monomerid=124210&enzyme=Tyrosine-protein+phosphatase+non-receptor+type+1&column=ki&startPg=0&Increment=50&submit=S
earch

> <PubChem CID of Ligand>
86766284

> <PubChem SID of Ligand>
225150602

> <Number of Protein Chains in Target (bigger than 1 implies a multichain complex)>
1

> <BindingDB Target Chain Sequence>
MEMEKEFEQIDKSGSWAAIYQDIRHEASDFPCRVAKLPKNKNRNRYRDVSPFDHSRIKLHQEDNDYINASLIKMEEAQRSYILTQGPLPNTCGHFWEMVWEQKSRGVVMLNRVMEKGSLKCAQYWPQKEEKEMIFEDTNLKLTLISEDIKSYYTVRQLELENLTTQETREILHFHYTTWPDFGVPESPASFLNFLFKVRE
SGSLSPEHGPVVVHCSAGIGRSGTFCLADTCLLLMDKRKDPSSVDIKKVLLEMRKFRMGLIQTADQLRFSYLAVIEGAKFIMGDSSVQDQWKELSHEDLEPPPEHIPPPPRPPKRILEPHNGKCREFFPNHQWVKEETQEDKDCPIKEEKGSPLNAAPYGIESMSQDTEVRSRVVGGSLRGAQAASPAKGEPSLPEKDED
HALSYWKPFLVNMCVATVLTAGAYLCYRFLFNSNT

> <PDB ID(s) of Target Chain>
1BZJ,1G7G,1GFY,1JF7,1KAK,1KAV,1LQF,1NL9,1NNY,1NO6,1NZ7,1OEM,1OEO,1OES,1OET,1OEU,1OEV,1ONY,1ONZ,1PH0,1PXH,1PYN,1Q1M,1Q6J,1Q6M,1Q6N,1Q6P,1Q6S,1Q6T,1QXK,1SUG,1T48,1T49,1T4J,1WAX,1XBO,2AZR,2B07,2BGD,2BGE,
2CM2,2CM3,2CM7,2CM8,2CMA,2CMB,2CMC,2CNE,2CNF,2CNG,2CNH,2CNI,2F6T,2F6V,2F6W,2F6Y,2F6Z,2F70,2F71,2FJN,2H4G,2H4K,2HB1,2HNP,2HNQ,2QBP,2QBQ,2QBR,2QBS,2VEU,2VEV,2VEW,2VEX,2VEY,2ZMM,2ZN7,3A5J,3CWE,3D9C,3EAX,
3EB1,3EU0,3I7Z,3I80,3SME,4BJO,4I8N,4QBW,4Y14,5K9V,5K9W,5KA0,5KA1,5T19,6B90,6NTP,6W30,7KEY,7KLX,7LFO,7MN9,7MNA,8DU7,8G65,8G67,8G68,8G69,8G6A,8SKL

> <UniProt (SwissProt) Recommended Name of Target Chain>
Tyrosine-protein phosphatase non-receptor type 1

> <UniProt (SwissProt) Entry Name of Target Chain>
PTN1_HUMAN

> <UniProt (SwissProt) Primary ID of Target Chain>
P18031

> <UniProt (SwissProt) Secondary ID(s) of Target Chain>
Q5TGD8 Q9BQV9 Q9NQQ4

$$$$
Molecule
  SciTegic10242319433D

 57 62  0  0  0  0            999 V2000
   29.0362  -19.5913    0.0000 C   0  0
   24.8783  -16.4979    0.0001 C   0  0
   24.9250  -17.8385    0.0002 C   0  0
   26.1776  -18.5171    0.0001 N   0  0
   26.1276  -15.7359    0.0000 C   0  0
   27.2508  -16.4390    0.0000 C   0  0
   27.2465  -17.8273    0.0000 C   0  0
   28.5785  -18.2518    0.0000 N   0  0
   29.4383  -17.0942   -0.0001 C   0  0
   28.6565  -16.0005   -0.0001 C   0  0
   23.5919  -15.7947    0.0002 C   0  0
   28.1775  -20.6116    0.0001 C   0  0
   28.6692  -21.9933    0.0002 C   0  0
   29.9811  -22.2380    0.0001 C   0  0
   30.9248  -21.1169    0.0000 C   0  0
   30.4769  -19.8617   -0.0001 C   0  0
   30.4751  -23.5578    0.0002 O   0  0
   29.4097  -24.5224    0.0003 C   0  0
   23.5603  -14.3277    0.0001 C   0  0
   22.3929  -13.6856    0.0002 C   0  0
   22.4516  -16.4836    0.0003 C   0  0
   29.1701  -14.5939   -0.0001 C   0  0
   30.4865  -14.3717   -0.0002 C   0  0
   31.0063  -12.9909   -0.0002 C   0  0
   30.1563  -11.9609   -0.0002 C   0  0
   28.7211  -12.2012   -0.0001 C   0  0
   28.2535  -13.4450   -0.0001 C   0  0
   30.6543  -10.5867   -0.0002 C   0  0
   21.1678  -15.7766    0.0004 C   0  0
   21.1398  -14.4448    0.0004 C   0  0
   19.8576  -13.7416    0.0005 C   0  0
   19.8300  -12.5058    0.0004 O   0  0
   18.6687  -14.4641    0.0007 O   0  0
   31.9633  -10.3657   -0.0002 C   0  0
   32.8671  -11.5055   -0.0003 C   0  0
   34.0896  -11.3242   -0.0003 O   0  0
   32.3606  -12.7739   -0.0002 O   0  0
   23.9983  -18.4124    0.0002 H   0  0
   26.1340  -14.6459    0.0000 H   0  0
   30.5282  -17.1041   -0.0001 H   0  0
   27.1049  -20.4177    0.0002 H   0  0
   27.9615  -22.8223    0.0003 H   0  0
   31.9975  -21.3104   -0.0001 H   0  0
   31.1848  -19.0328   -0.0002 H   0  0
   29.8296  -25.5282    0.0003 H   0  0
   28.7952  -24.3858   -0.8896 H   0  0
   28.7953  -24.3857    0.8902 H   0  0
   24.4925  -13.7629    0.0000 H   0  0
   22.3701  -12.5959    0.0001 H   0  0
   22.4735  -17.5734    0.0004 H   0  0
   31.1794  -15.2131   -0.0002 H   0  0
   28.0285  -11.3595   -0.0001 H   0  0
   27.1768  -13.6153   -0.0001 H   0  0
   29.9562   -9.7497   -0.0002 H   0  0
   20.2352  -16.3409    0.0006 H   0  0
   18.1123  -14.2232    0.8580 H   0  0
   32.3540   -9.3482   -0.0003 H   0  0
  2  3  2  0
  3  4  1  0
  4  7  2  0
  6  5  2  0
  5  2  1  0
  6  7  1  0
  7  8  1  0
  8  9  1  0
  9 10  2  0
 10  6  1  0
  8  1  1  0
  2 11  1  0
  1 12  2  0
 12 13  1  0
 13 14  2  0
 14 15  1  0
 15 16  2  0
 16  1  1  0
 14 17  1  0
 17 18  1  0
 11 19  1  0
 11 21  2  0
 19 20  2  0
 20 30  1  0
 29 21  1  0
 22 23  2  0
 23 24  1  0
 24 25  2  0
 25 26  1  0
 26 27  2  0
 27 22  1  0
 10 22  1  0
 25 28  1  0
 29 30  2  0
 31 32  2  0
 31 33  1  0
 30 31  1  0
 24 37  1  0
 28 34  2  0
 34 35  1  0
 35 36  2  0
 35 37  1  0
  3 38  1  0
  5 39  1  0
  9 40  1  0
 12 41  1  0
 13 42  1  0
 15 43  1  0
 16 44  1  0
 18 45  1  0
 18 46  1  0
 18 47  1  0
 19 48  1  0
 20 49  1  0
 21 50  1  0
 23 51  1  0
 26 52  1  0
 27 53  1  0
 28 54  1  0
 29 55  1  0
 33 56  1  0
 34 57  1  0
M  END
> <Name>
Molecule

> <Clean Energy>
18.2942

> <From>
www.bindingDB.org

> <BindingDB Reactant_set_id>
51376949

> <Ligand InChI>
InChI=1S/C30H20N2O5/c1-36-24-11-9-23(10-12-24)32-17-26(21-7-4-19-8-13-28(33)37-27(19)15-21)25-14-22(16-31-29(25)32)18-2-5-20(6-3-18)30(34)35/h2-17H,1H3,(H,34,35)

> <Ligand InChI Key>
CQHDXEWKDCKMHF-UHFFFAOYSA-N

> <BindingDB MonomerID>
50556732

> <BindingDB Ligand Name>
CHEMBL4750435

> <Target Name>
Tyrosine-protein phosphatase non-receptor type 1

> <Target Source Organism According to Curator or DataSource>
Homo sapiens

> <IC50 (nM)>
410

> <Curation/DataSource>
ChEMBL

> <Article DOI>
10.1021/acs.jmedchem.0c01265

> <BindingDB Entry DOI>
10.7270/Q24171QP

> <PMID>
33210922

> <Authors>
Mostinski, Y; Heynen, GJJE; López-Alberca, MP; Paul, J; Miksche, S; Radetzki, S; Schaller, D; Shanina, E; Seyffarth, C; Kolomeets, Y; Ziebart, N; de Schryver, J; Oestreich, S; Neuenschwander, M; Rosk
e, Y; Heinemann, U; Rademacher, C; Volkamer, A; von Kries, JP; Birchmeier, W; Nazaré, M

> <Institution>
Leibniz-Forschungsinstitut f&#65533;r Molekulare Pharmakologie (FMP)

> <Link to Ligand in BindingDB>
http://www.bindingdb.org/bind/chemsearch/marvin/MolStructure.jsp?monomerid=50556732

> <Link to Ligand-Target Pair in BindingDB>
http://www.bindingdb.org/jsp/dbsearch/PrimarySearch_ki.jsp?energyterm=kJ/mole&tag=pol&polymerid=2622&target=Tyrosine-protein+phosphatase+non-receptor+type+1&column=ki&startPg=0&Increment=50&submit=Sea
rch
http://www.bindingdb.org/jsp/dbsearch/PrimarySearch_ki.jsp?energyterm=kJ/mole&tag=r21&monomerid=50556732&enzyme=Tyrosine-protein+phosphatase+non-receptor+type+1&column=ki&startPg=0&Increment=50&submit
=Search

> <PubChem CID of Ligand>
162651708

> <PubChem SID of Ligand>
461695500

> <Number of Protein Chains in Target (bigger than 1 implies a multichain complex)>
1

> <BindingDB Target Chain Sequence>
MEMEKEFEQIDKSGSWAAIYQDIRHEASDFPCRVAKLPKNKNRNRYRDVSPFDHSRIKLHQEDNDYINASLIKMEEAQRSYILTQGPLPNTCGHFWEMVWEQKSRGVVMLNRVMEKGSLKCAQYWPQKEEKEMIFEDTNLKLTLISEDIKSYYTVRQLELENLTTQETREILHFHYTTWPDFGVPESPASFLNFLFKVRE
SGSLSPEHGPVVVHCSAGIGRSGTFCLADTCLLLMDKRKDPSSVDIKKVLLEMRKFRMGLIQTADQLRFSYLAVIEGAKFIMGDSSVQDQWKELSHEDLEPPPEHIPPPPRPPKRILEPHNGKCREFFPNHQWVKEETQEDKDCPIKEEKGSPLNAAPYGIESMSQDTEVRSRVVGGSLRGAQAASPAKGEPSLPEKDED
HALSYWKPFLVNMCVATVLTAGAYLCYRFLFNSNT

> <PDB ID(s) of Target Chain>
1BZJ,1G7G,1GFY,1JF7,1KAK,1KAV,1LQF,1NL9,1NNY,1NO6,1NZ7,1OEM,1OEO,1OES,1OET,1OEU,1OEV,1ONY,1ONZ,1PH0,1PXH,1PYN,1Q1M,1Q6J,1Q6M,1Q6N,1Q6P,1Q6S,1Q6T,1QXK,1SUG,1T48,1T49,1T4J,1WAX,1XBO,2AZR,2B07,2BGD,2BGE,
2CM2,2CM3,2CM7,2CM8,2CMA,2CMB,2CMC,2CNE,2CNF,2CNG,2CNH,2CNI,2F6T,2F6V,2F6W,2F6Y,2F6Z,2F70,2F71,2FJN,2H4G,2H4K,2HB1,2HNP,2HNQ,2QBP,2QBQ,2QBR,2QBS,2VEU,2VEV,2VEW,2VEX,2VEY,2ZMM,2ZN7,3A5J,3CWE,3D9C,3EAX,
3EB1,3EU0,3I7Z,3I80,3SME,4BJO,4I8N,4QBW,4Y14,5K9V,5K9W,5KA0,5KA1,5T19,6B90,6NTP,6W30,7KEY,7KLX,7LFO,7MN9,7MNA,8DU7,8G65,8G67,8G68,8G69,8G6A,8SKL

> <UniProt (SwissProt) Recommended Name of Target Chain>
Tyrosine-protein phosphatase non-receptor type 1

> <UniProt (SwissProt) Entry Name of Target Chain>
PTN1_HUMAN

> <UniProt (SwissProt) Primary ID of Target Chain>
P18031

> <UniProt (SwissProt) Secondary ID(s) of Target Chain>
Q5TGD8 Q9BQV9 Q9NQQ4

$$$$
Molecule
  SciTegic10242319433D

 86 91  0  0  0  0            999 V2000
   -3.9049  -17.7464    1.2527 O   0  0
   -2.9223  -17.6070    0.1067 S   0  0
   -3.6573  -17.8160   -1.2038 O   0  0
    6.9305  -22.8705   -0.1363 C   0  0  2  0  0  0
    8.0952  -22.1403    0.2252 O   0  0
    8.0911  -20.7169    0.2227 C   0  0
    6.9503  -20.0107    0.1121 C   0  0
    5.7300  -22.1232    0.5416 C   0  0  1  0  0  0
    5.6600  -20.7367   -0.0016 C   0  0  2  0  0  0
    5.1830  -20.9987   -1.4512 C   0  0
    4.0839  -21.9988   -1.0757 C   0  0
    4.4105  -22.6095    0.0775 C   0  0
    6.9387  -18.5279    0.0996 C   0  0
    5.8506  -17.9472    0.0280 O   0  0
    3.5410  -23.6166    0.8475 C   0  0
    2.2823  -23.9811    0.1865 O   0  0
    4.8469  -20.1797    0.4844 H   0  0
    5.8821  -22.1665    1.6299 H   0  0
    6.9941  -24.2542    0.2822 O   0  0
    1.2431  -22.9866    0.1590 C   0  0
    1.3849  -21.7810    0.7201 C   0  0
    0.3186  -20.7843    0.6152 C   0  0
   -0.8076  -21.0782   -0.0313 C   0  0
   -0.9838  -22.4038   -0.6223 C   0  0
   -0.0102  -23.3084   -0.5331 C   0  0
   -1.8577  -20.0681   -0.1717 C   0  0
   -1.6580  -18.8331    0.2846 C   0  0
   -2.2365  -16.0529    0.1509 O   0  0
   -3.2775  -15.0782    0.0420 C   0  0
   -2.6716  -13.6646    0.1070 C   0  0
    8.1501  -24.8790   -0.3094 C   0  0
    8.0903  -17.8435    0.1443 N   0  0
    8.2098  -16.4085    0.1145 C   0  0
    9.4302  -15.8898    0.1242 C   0  0
    9.6280  -14.4483    0.0882 C   0  0
    8.6205  -13.5949    0.0412 C   0  0
    7.2498  -14.1604    0.0307 C   0  0
    7.0536  -15.4846    0.0648 C   0  0
    8.7609  -12.1374    0.0073 O   0  0
    9.9924  -11.2611   -0.0042 C   0  0
   11.3278  -11.5655   -0.0066 C   0  0
   12.3185  -10.4807   -0.0152 C   0  0
   11.9659   -9.2054   -0.0189 C   0  0
   10.5690   -8.8554   -0.0179 C   0  0
    9.6453   -9.8143   -0.0105 C   0  0
   12.0443  -13.1293   -0.0075 Cl  0  0
   13.3055   -7.8551   -0.0260 Br  0  0
    8.1304  -26.3863   -0.1291 C   0  0
    7.0226  -27.0104    0.2719 C   0  0
    7.0205  -28.4743    0.4317 C   0  0
    8.1243  -29.1775    0.1792 C   0  0
    9.3417  -28.4924   -0.2603 C   0  0
    9.3445  -27.1678   -0.4096 C   0  0
    6.8081  -22.8316   -1.2187 H   0  0
    9.0377  -20.1840    0.3127 H   0  0
    4.7914  -20.1036   -1.9344 H   0  0
    5.9588  -21.4402   -2.0769 H   0  0
    3.1786  -22.1859   -1.6532 H   0  0
    4.1238  -24.5266    0.9904 H   0  0
    3.3001  -23.1827    1.8180 H   0  0
    2.3008  -21.5391    1.2591 H   0  0
    0.4465  -19.8005    1.0666 H   0  0
   -1.9125  -22.6519   -1.1361 H   0  0
   -0.1454  -24.2946   -0.9774 H   0  0
   -2.8027  -20.3267   -0.6494 H   0  0
   -0.7153  -18.5770    0.7681 H   0  0
   -3.7964  -15.2068   -0.9079 H   0  0
   -3.9830  -15.2083    0.8626 H   0  0
   -3.4668  -12.9238    0.0238 H   0  0
   -1.9660  -13.5331   -0.7133 H   0  0
   -2.1525  -13.5345    1.0566 H   0  0
    8.1673  -24.6516   -1.3753 H   0  0
    9.0475  -24.4790    0.1625 H   0  0
    8.9958  -18.4101    0.2073 H   0  0
   10.2958  -16.5512    0.1596 H   0  0
   10.6457  -14.0581    0.1004 H   0  0
    6.3912  -13.4899   -0.0051 H   0  0
    6.0394  -15.8838    0.0558 H   0  0
   13.3784  -10.7347   -0.0187 H   0  0
   10.2685   -7.8077   -0.0233 H   0  0
    8.5936   -9.5282   -0.0089 H   0  0
    6.1192  -26.4376    0.4813 H   0  0
    6.1138  -28.9843    0.7573 H   0  0
    8.1209  -30.2608    0.2998 H   0  0
   10.2457  -29.0658   -0.4656 H   0  0
   10.2509  -26.6613   -0.7411 H   0  0
  2  1  2  0
  3  2  2  0
  9  7  1  0
  8  4  1  0
  4  5  1  0
  5  6  1  0
  6  7  2  0
  8  9  1  0
  9 10  1  0
 10 11  1  0
 11 12  2  0
 12  8  1  0
  7 13  1  0
 13 14  2  0
 12 15  1  0
 15 16  1  0
  9 17  1  0
  8 18  1  0
  4 19  1  0
 16 20  1  0
 20 21  2  0
 21 22  1  0
 22 23  2  0
 23 24  1  0
 24 25  2  0
 25 20  1  0
 23 26  1  0
 26 27  2  0
 27  2  1  0
  2 28  1  0
 28 29  1  0
 29 30  1  0
 19 31  1  0
 13 32  1  0
 32 33  1  0
 33 34  2  0
 34 35  1  0
 35 36  2  0
 36 37  1  0
 37 38  2  0
 38 33  1  0
 36 39  1  0
 39 40  1  0
 40 41  2  0
 41 42  1  0
 42 43  2  0
 43 44  1  0
 44 45  2  0
 45 40  1  0
 41 46  1  0
 43 47  1  0
 31 48  1  0
 48 49  2  0
 49 50  1  0
 50 51  2  0
 51 52  1  0
 52 53  2  0
 53 48  1  0
  4 54  1  0
  6 55  1  0
 10 56  1  0
 10 57  1  0
 11 58  1  0
 15 59  1  0
 15 60  1  0
 21 61  1  0
 22 62  1  0
 24 63  1  0
 25 64  1  0
 26 65  1  0
 27 66  1  0
 29 67  1  0
 29 68  1  0
 30 69  1  0
 30 70  1  0
 30 71  1  0
 31 72  1  0
 31 73  1  0
 32 74  1  0
 34 75  1  0
 35 76  1  0
 37 77  1  0
 38 78  1  0
 42 79  1  0
 44 80  1  0
 45 81  1  0
 49 82  1  0
 50 83  1  0
 51 84  1  0
 52 85  1  0
 53 86  1  0
M  END
> <Name>
Molecule

> <Clean Energy>
77.8438

> <From>
www.bindingDB.org

> <BindingDB Reactant_set_id>
51399950

> <Ligand InChI>
InChI=1S/C39H35BrClNO8S/c1-2-49-51(44,45)21-20-26-8-14-31(15-9-26)46-24-28-10-18-33-34(25-48-39(37(28)33)47-23-27-6-4-3-5-7-27)38(43)42-30-12-16-32(17-13-30)50-36-19-11-29(40)22-35(36)41/h3-17,19-22,2
5,33,37,39H,2,18,23-24H2,1H3,(H,42,43)/b21-20+/t33-,37-,39-/m1/s1

> <Ligand InChI Key>
UBHXIHKSNAIMSA-MXAZMUERSA-N

> <BindingDB MonomerID>
50565473

> <BindingDB Ligand Name>
CHEMBL4800140

> <Target Name>
Tyrosine-protein phosphatase non-receptor type 1

> <Target Source Organism According to Curator or DataSource>
Homo sapiens

> <IC50 (nM)>
410

> <Curation/DataSource>
ChEMBL

> <Article DOI>
10.1016/j.ejmech.2020.112508

> <BindingDB Entry DOI>
10.7270/Q2QJ7N1M

> <PMID>
32738350

> <Authors>
Lei, S; Zhang, D; Qi, Y; Chowdhury, SR; Sun, R; Wang, J; Du, Y; Fu, L; Jiang, F

> <Institution>
Shanghai Jiao Tong University

> <Link to Ligand in BindingDB>
http://www.bindingdb.org/bind/chemsearch/marvin/MolStructure.jsp?monomerid=50565473

> <Link to Ligand-Target Pair in BindingDB>
http://www.bindingdb.org/jsp/dbsearch/PrimarySearch_ki.jsp?energyterm=kJ/mole&tag=pol&polymerid=2622&target=Tyrosine-protein+phosphatase+non-receptor+type+1&column=ki&startPg=0&Increment=50&submit=Sea
rch
http://www.bindingdb.org/jsp/dbsearch/PrimarySearch_ki.jsp?energyterm=kJ/mole&tag=r21&monomerid=50565473&enzyme=Tyrosine-protein+phosphatase+non-receptor+type+1&column=ki&startPg=0&Increment=50&submit
=Search

> <PubChem CID of Ligand>
162676528

> <PubChem SID of Ligand>
461685811

> <Number of Protein Chains in Target (bigger than 1 implies a multichain complex)>
1

> <BindingDB Target Chain Sequence>
MEMEKEFEQIDKSGSWAAIYQDIRHEASDFPCRVAKLPKNKNRNRYRDVSPFDHSRIKLHQEDNDYINASLIKMEEAQRSYILTQGPLPNTCGHFWEMVWEQKSRGVVMLNRVMEKGSLKCAQYWPQKEEKEMIFEDTNLKLTLISEDIKSYYTVRQLELENLTTQETREILHFHYTTWPDFGVPESPASFLNFLFKVRE
SGSLSPEHGPVVVHCSAGIGRSGTFCLADTCLLLMDKRKDPSSVDIKKVLLEMRKFRMGLIQTADQLRFSYLAVIEGAKFIMGDSSVQDQWKELSHEDLEPPPEHIPPPPRPPKRILEPHNGKCREFFPNHQWVKEETQEDKDCPIKEEKGSPLNAAPYGIESMSQDTEVRSRVVGGSLRGAQAASPAKGEPSLPEKDED
HALSYWKPFLVNMCVATVLTAGAYLCYRFLFNSNT

> <PDB ID(s) of Target Chain>
1BZJ,1G7G,1GFY,1JF7,1KAK,1KAV,1LQF,1NL9,1NNY,1NO6,1NZ7,1OEM,1OEO,1OES,1OET,1OEU,1OEV,1ONY,1ONZ,1PH0,1PXH,1PYN,1Q1M,1Q6J,1Q6M,1Q6N,1Q6P,1Q6S,1Q6T,1QXK,1SUG,1T48,1T49,1T4J,1WAX,1XBO,2AZR,2B07,2BGD,2BGE,
2CM2,2CM3,2CM7,2CM8,2CMA,2CMB,2CMC,2CNE,2CNF,2CNG,2CNH,2CNI,2F6T,2F6V,2F6W,2F6Y,2F6Z,2F70,2F71,2FJN,2H4G,2H4K,2HB1,2HNP,2HNQ,2QBP,2QBQ,2QBR,2QBS,2VEU,2VEV,2VEW,2VEX,2VEY,2ZMM,2ZN7,3A5J,3CWE,3D9C,3EAX,
3EB1,3EU0,3I7Z,3I80,3SME,4BJO,4I8N,4QBW,4Y14,5K9V,5K9W,5KA0,5KA1,5T19,6B90,6NTP,6W30,7KEY,7KLX,7LFO,7MN9,7MNA,8DU7,8G65,8G67,8G68,8G69,8G6A,8SKL

> <UniProt (SwissProt) Recommended Name of Target Chain>
Tyrosine-protein phosphatase non-receptor type 1

> <UniProt (SwissProt) Entry Name of Target Chain>
PTN1_HUMAN

> <UniProt (SwissProt) Primary ID of Target Chain>
P18031

> <UniProt (SwissProt) Secondary ID(s) of Target Chain>
Q5TGD8 Q9BQV9 Q9NQQ4

$$$$
Molecule
  SciTegic10242319433D

114118  0  0  0  0            999 V2000
    4.4247  -26.9943   -0.4211 C   0  0  2  0  0  0
    4.5573  -25.6134    0.2812 C   0  0
    3.2638  -27.8766    0.3218 C   0  0  1  0  0  0
    0.5715  -27.7183    0.7306 C   0  0  2  0  0  0
    7.1888  -25.4764   -0.4500 C   0  0  1  0  0  0
    5.8297  -24.7462    0.1222 C   0  0  1  0  0  0
    1.9079  -27.0015    0.2353 C   0  0  1  0  0  0
    0.4431  -29.0721   -0.1357 C   0  0  2  0  0  0
   -0.9198  -29.8915    0.1361 C   0  0
    3.5094  -25.0416    0.8825 C   0  0
    8.1689  -26.1333    0.5515 C   0  0
    5.8264  -27.6427   -0.5984 C   0  0
    2.9938  -29.1892   -0.4591 C   0  0
    2.1309  -25.7041    1.0769 C   0  0
    6.7466  -26.6071   -1.4113 C   0  0
   -0.6690  -26.8451    0.3909 C   0  0
    1.7216  -29.9637    0.1013 C   0  0
    8.0671  -24.4474   -1.2748 C   0  0
    5.5073  -23.7181   -0.9352 C   0  0
   -2.0795  -28.9151   -0.2046 C   0  0  2  0  0  0
    6.6367  -22.5726   -0.8156 C   0  0
   -2.0027  -27.6296    0.6991 C   0  0
    8.0446  -23.2030   -0.4834 C   0  0
    3.9901  -26.7481   -1.9088 C   0  0
    3.7455  -28.2458    1.7662 C   0  0
    0.5974  -27.9009    2.2847 C   0  0
   -3.3277  -29.5900   -0.0096 O   0  0
    6.3299  -21.5462    0.3089 C   0  0
    6.6550  -21.8271   -2.1583 C   0  0
   -1.1191  -30.4588    1.5748 C   0  0
   -0.9840  -31.1033   -0.8104 C   0  0
    7.8162  -26.7766    1.5482 O   0  0
    9.5788  -25.9075    0.1934 O   0  0
   10.6956  -26.4603    0.9729 C   0  0
   12.0350  -25.8507    0.3153 C   0  0
   13.4086  -26.4388    0.8548 C   0  0
   14.6524  -25.6937    0.1788 C   0  0
   16.0417  -26.3494    0.5771 C   0  0
   17.2783  -25.5449   -0.0061 C   0  0
   18.6408  -26.2758    0.3228 C   0  0
   19.8860  -25.4309   -0.1371 C   0  0
   21.2257  -26.2052    0.1338 C   0  0
   22.4561  -25.3102   -0.2181 C   0  0
   23.7629  -26.0633   -0.0227 C   0  0
   23.7541  -27.4225    0.2765 O   0  0
   24.8436  -25.4722   -0.1493 O   0  0
    6.0519  -24.2454    1.0645 H   0  0
    1.7649  -26.7065   -0.8042 H   0  0
    0.4417  -28.7834   -1.1867 H   0  0
    3.6395  -24.0291    1.2648 H   0  0
    6.2679  -27.8439    0.3777 H   0  0
    5.7358  -28.5749   -1.1559 H   0  0
    2.8243  -28.9463   -1.5080 H   0  0
    3.8665  -29.8365   -0.3720 H   0  0
    1.3642  -24.9816    0.7970 H   0  0
    2.0224  -25.9599    2.1309 H   0  0
    6.1783  -26.1833   -2.2392 H   0  0
    7.6248  -27.1231   -1.7991 H   0  0
   -0.6418  -25.9357    0.9912 H   0  0
   -0.6439  -26.5836   -0.6670 H   0  0
    1.8462  -30.1501    1.1680 H   0  0
    1.6094  -30.9125   -0.4233 H   0  0
    9.0878  -24.8148   -1.3812 H   0  0
    7.6355  -24.2810   -2.2618 H   0  0
    5.5360  -24.1737   -1.9250 H   0  0
    4.5192  -23.2931   -0.7588 H   0  0
   -1.9969  -28.6184   -1.2502 H   0  0
   -2.0166  -27.9230    1.7488 H   0  0
   -2.8581  -26.9873    0.4895 H   0  0
    8.1323  -23.4184    0.5815 H   0  0
    8.8507  -22.5351   -0.7871 H   0  0
    3.8906  -27.7046   -2.4218 H   0  0
    4.7437  -26.1428   -2.4126 H   0  0
    3.0336  -26.2257   -1.9267 H   0  0
    2.9765  -28.8339    2.2670 H   0  0
    3.9304  -27.3329    2.3325 H   0  0
    4.6652  -28.8277    1.7055 H   0  0
   -0.3205  -28.3912    2.6088 H   0  0
    0.6764  -26.9253    2.7644 H   0  0
    1.4543  -28.5135    2.5649 H   0  0
   -3.3745  -30.4292   -0.6390 H   0  0
    7.1219  -20.7983    0.3448 H   0  0
    6.2746  -22.0624    1.2674 H   0  0
    5.3776  -21.0567    0.1048 H   0  0
    7.4068  -21.0386   -2.1264 H   0  0
    5.6751  -21.3868   -2.3433 H   0  0
    6.8959  -22.5261   -2.9592 H   0  0
   -2.0707  -30.9875    1.6288 H   0  0
   -1.1186  -29.6385    2.2926 H   0  0
   -0.3076  -31.1474    1.8100 H   0  0
   -1.9042  -31.6586   -0.6287 H   0  0
   -0.1270  -31.7521   -0.6295 H   0  0
   -0.9665  -30.7587   -1.8444 H   0  0
   10.6149  -26.1592    2.0174 H   0  0
   10.7020  -27.5483    0.9074 H   0  0
   11.9926  -26.0354   -0.7582 H   0  0
   12.0374  -24.7765    0.4999 H   0  0
   13.4553  -26.3026    1.9352 H   0  0
   13.4586  -27.5019    0.6196 H   0  0
   14.5414  -25.7406   -0.9045 H   0  0
   14.6526  -24.6520    0.4997 H   0  0
   16.1195  -26.3714    1.6641 H   0  0
   16.0722  -27.3676    0.1894 H   0  0
   17.1709  -25.4626   -1.0877 H   0  0
   17.2940  -24.5481    0.4348 H   0  0
   18.7029  -26.4376    1.3989 H   0  0
   18.6579  -27.2369   -0.1912 H   0  0
   19.8028  -25.2263   -1.2045 H   0  0
   19.9010  -24.4903    0.4135 H   0  0
   21.2732  -26.4818    1.1870 H   0  0
   21.2499  -27.1054   -0.4803 H   0  0
   22.3800  -24.9961   -1.2591 H   0  0
   22.4525  -24.4324    0.4280 H   0  0
   23.2382  -27.5797    1.1774 H   0  0
  2  1  1  0
  3  1  1  0
  4  7  1  0
  5 15  1  0
  6  2  1  0
  7  3  1  0
  8 17  1  0
  9  8  1  0
 10  2  2  0
  5 11  1  0
 12  1  1  0
 13  3  1  0
  7 14  1  0
 15 12  1  0
 16  4  1  0
 17 13  1  0
 18  5  1  0
  6 19  1  0
 20  9  1  0
 21 19  1  0
 22 16  1  0
 23 18  1  0
  1 24  1  0
  3 25  1  0
  4 26  1  0
 20 27  1  0
 28 21  1  0
 29 21  1  0
  5  6  1  0
 14 10  1  0
  8  4  1  0
 21 23  1  0
 20 22  1  0
  9 30  1  0
  9 31  1  0
 11 32  2  0
 11 33  1  0
 33 34  1  0
 34 35  1  0
 35 36  1  0
 36 37  1  0
 37 38  1  0
 38 39  1  0
 39 40  1  0
 40 41  1  0
 41 42  1  0
 42 43  1  0
 43 44  1  0
 44 45  1  0
 44 46  2  0
  6 47  1  0
  7 48  1  0
  8 49  1  0
 10 50  1  0
 12 51  1  0
 12 52  1  0
 13 53  1  0
 13 54  1  0
 14 55  1  0
 14 56  1  0
 15 57  1  0
 15 58  1  0
 16 59  1  0
 16 60  1  0
 17 61  1  0
 17 62  1  0
 18 63  1  0
 18 64  1  0
 19 65  1  0
 19 66  1  0
 20 67  1  0
 22 68  1  0
 22 69  1  0
 23 70  1  0
 23 71  1  0
 24 72  1  0
 24 73  1  0
 24 74  1  0
 25 75  1  0
 25 76  1  0
 25 77  1  0
 26 78  1  0
 26 79  1  0
 26 80  1  0
 27 81  1  0
 28 82  1  0
 28 83  1  0
 28 84  1  0
 29 85  1  0
 29 86  1  0
 29 87  1  0
 30 88  1  0
 30 89  1  0
 30 90  1  0
 31 91  1  0
 31 92  1  0
 31 93  1  0
 34 94  1  0
 34 95  1  0
 35 96  1  0
 35 97  1  0
 36 98  1  0
 36 99  1  0
 37100  1  0
 37101  1  0
 38102  1  0
 38103  1  0
 39104  1  0
 39105  1  0
 40106  1  0
 40107  1  0
 41108  1  0
 41109  1  0
 42110  1  0
 42111  1  0
 43112  1  0
 43113  1  0
 45114  1  0
M  END
> <Name>
Molecule

> <Clean Energy>
121.575

> <From>
www.bindingDB.org

> <BindingDB Reactant_set_id>
51186507

> <Ligand InChI>
InChI=1S/C41H68O5/c1-36(2)23-25-41(35(45)46-27-15-13-11-9-8-10-12-14-16-34(43)44)26-24-39(6)29(30(41)28-36)17-18-32-38(5)21-20-33(42)37(3,4)31(38)19-22-40(32,39)7/h17,30-33,42H,8-16,18-28H2,1-7H3,(H,4
3,44)/t30-,31-,32+,33-,38-,39+,40+,41-/m0/s1

> <Ligand InChI Key>
WWHJCGNAVLGRQA-DRSVJKCWSA-N

> <BindingDB MonomerID>
50487822

> <BindingDB Ligand Name>
CHEMBL2263120

> <Target Name>
Tyrosine-protein phosphatase non-receptor type 1

> <Target Source Organism According to Curator or DataSource>
Homo sapiens

> <IC50 (nM)>
720

> <Curation/DataSource>
ChEMBL

> <Article DOI>
10.1007/s00044-010-9529-5

> <BindingDB Entry DOI>
10.7270/Q2F76GFZ

> <Authors>
n/a

> <Institution>
n/a

> <Link to Ligand in BindingDB>
http://www.bindingdb.org/bind/chemsearch/marvin/MolStructure.jsp?monomerid=50487822

> <Link to Ligand-Target Pair in BindingDB>
http://www.bindingdb.org/jsp/dbsearch/PrimarySearch_ki.jsp?energyterm=kJ/mole&tag=pol&polymerid=2622&target=Tyrosine-protein+phosphatase+non-receptor+type+1&column=ki&startPg=0&Increment=50&submit=Sea
rch
http://www.bindingdb.org/jsp/dbsearch/PrimarySearch_ki.jsp?energyterm=kJ/mole&tag=r21&monomerid=50487822&enzyme=Tyrosine-protein+phosphatase+non-receptor+type+1&column=ki&startPg=0&Increment=50&submit
=Search

> <PubChem CID of Ligand>
76308572

> <PubChem SID of Ligand>
433955087

> <Number of Protein Chains in Target (bigger than 1 implies a multichain complex)>
1

> <BindingDB Target Chain Sequence>
MEMEKEFEQIDKSGSWAAIYQDIRHEASDFPCRVAKLPKNKNRNRYRDVSPFDHSRIKLHQEDNDYINASLIKMEEAQRSYILTQGPLPNTCGHFWEMVWEQKSRGVVMLNRVMEKGSLKCAQYWPQKEEKEMIFEDTNLKLTLISEDIKSYYTVRQLELENLTTQETREILHFHYTTWPDFGVPESPASFLNFLFKVRE
SGSLSPEHGPVVVHCSAGIGRSGTFCLADTCLLLMDKRKDPSSVDIKKVLLEMRKFRMGLIQTADQLRFSYLAVIEGAKFIMGDSSVQDQWKELSHEDLEPPPEHIPPPPRPPKRILEPHNGKCREFFPNHQWVKEETQEDKDCPIKEEKGSPLNAAPYGIESMSQDTEVRSRVVGGSLRGAQAASPAKGEPSLPEKDED
HALSYWKPFLVNMCVATVLTAGAYLCYRFLFNSNT

> <PDB ID(s) of Target Chain>
1BZJ,1G7G,1GFY,1JF7,1KAK,1KAV,1LQF,1NL9,1NNY,1NO6,1NZ7,1OEM,1OEO,1OES,1OET,1OEU,1OEV,1ONY,1ONZ,1PH0,1PXH,1PYN,1Q1M,1Q6J,1Q6M,1Q6N,1Q6P,1Q6S,1Q6T,1QXK,1SUG,1T48,1T49,1T4J,1WAX,1XBO,2AZR,2B07,2BGD,2BGE,
2CM2,2CM3,2CM7,2CM8,2CMA,2CMB,2CMC,2CNE,2CNF,2CNG,2CNH,2CNI,2F6T,2F6V,2F6W,2F6Y,2F6Z,2F70,2F71,2FJN,2H4G,2H4K,2HB1,2HNP,2HNQ,2QBP,2QBQ,2QBR,2QBS,2VEU,2VEV,2VEW,2VEX,2VEY,2ZMM,2ZN7,3A5J,3CWE,3D9C,3EAX,
3EB1,3EU0,3I7Z,3I80,3SME,4BJO,4I8N,4QBW,4Y14,5K9V,5K9W,5KA0,5KA1,5T19,6B90,6NTP,6W30,7KEY,7KLX,7LFO,7MN9,7MNA,8DU7,8G65,8G67,8G68,8G69,8G6A,8SKL

> <UniProt (SwissProt) Recommended Name of Target Chain>
Tyrosine-protein phosphatase non-receptor type 1

> <UniProt (SwissProt) Entry Name of Target Chain>
PTN1_HUMAN

> <UniProt (SwissProt) Primary ID of Target Chain>
P18031

> <UniProt (SwissProt) Secondary ID(s) of Target Chain>
Q5TGD8 Q9BQV9 Q9NQQ4

$$$$
Molecule
  SciTegic10242319433D

 64 69  0  0  0  0            999 V2000
    2.0668  -13.5711    0.0174 C   0  0
    2.1455  -14.9059   -0.0033 C   0  0
    3.4779  -15.5724   -0.0181 C   0  0
    3.3143  -12.7864    0.0277 C   0  0
    4.5034  -13.3964    0.0148 C   0  0
    4.5958  -14.8386   -0.0097 C   0  0
    5.9464  -15.4689   -0.0330 C   0  0
    7.0559  -14.7084   -0.0285 C   0  0
    6.9235  -13.2300    0.0027 C   0  0
    5.7347  -12.6197    0.0231 C   0  0
    0.8066  -12.8845    0.0268 O   0  0
    8.4290  -15.3782   -0.0644 C   0  0
    9.6210  -14.7377   -0.0775 C   0  0
   10.9661  -15.4035   -0.1219 C   0  0
   12.1192  -14.4234   -0.1300 N   0  0
   11.5818  -13.0499   -0.1050 C   0  0
    9.8922  -13.0928   -0.0580 S   0  0
   12.3761  -11.7005   -0.1662 S   0  0
   11.0757  -16.6302   -0.1576 O   0  0
   13.6419  -14.7849   -0.1854 C   0  0  2  0  0  0
   14.0101  -16.1746    0.3934 C   0  0
   14.6451  -13.6028    0.2499 C   0  0
   16.1750  -13.7426   -0.0525 C   0  0
   16.8457  -14.8361   -0.4484 C   0  0
   18.2330  -14.4798   -0.5886 N   0  0
   17.1462  -12.6605    0.0416 C   0  0
   18.3267  -13.1239   -0.2747 C   0  0
   19.5138  -12.2859   -0.2873 C   0  0
   19.3591  -10.9961    0.0332 C   0  0
   18.0042  -10.4629    0.3910 C   0  0
   16.9337  -11.2697    0.3983 C   0  0
   13.2607  -17.3013    0.1163 O   0  0
   15.0453  -16.3188    1.0504 O   0  0
   -0.3309  -13.7818    0.0111 C   0  0
   -1.6449  -12.9991    0.0073 C   0  0
   -1.6428  -11.6648    0.0095 C   0  0
   -2.9186  -10.9229    0.0058 C   0  0
   -4.0774  -11.5824    0.0002 C   0  0
   -4.0812  -13.0474   -0.0025 C   0  0
   -2.9290  -13.7202    0.0007 C   0  0
   -5.5754  -10.7118   -0.0037 Cl  0  0
    1.2355  -15.5058   -0.0095 H   0  0
    3.5417  -16.6604   -0.0357 H   0  0
    3.2667  -11.6976    0.0461 H   0  0
    6.0357  -16.5551   -0.0537 H   0  0
    7.8275  -12.6210    0.0091 H   0  0
    5.6866  -11.5310    0.0463 H   0  0
    8.4502  -16.4678   -0.0809 H   0  0
   13.8347  -14.8979   -1.2523 H   0  0
   14.3041  -12.6967   -0.2509 H   0  0
   14.5445  -13.4823    1.3285 H   0  0
   16.4152  -15.8206   -0.6315 H   0  0
   19.0346  -15.1273   -0.8768 H   0  0
   20.4914  -12.6919   -0.5474 H   0  0
   20.2218  -10.3300    0.0343 H   0  0
   17.8886   -9.4098    0.6474 H   0  0
   15.9440  -10.8965    0.6614 H   0  0
   12.2764  -17.1591    0.4532 H   0  0
   -0.2831  -14.4025   -0.8836 H   0  0
   -0.2966  -14.4166    0.8965 H   0  0
   -0.6976  -11.1220    0.0141 H   0  0
   -2.9136   -9.8329    0.0077 H   0  0
   -5.0272  -13.5888   -0.0072 H   0  0
   -2.9382  -14.8102   -0.0015 H   0  0
  1  2  2  0
  2  3  1  0
  3  6  2  0
  5  4  2  0
  4  1  1  0
  5  6  1  0
  6  7  1  0
  7  8  2  0
  8  9  1  0
  9 10  2  0
 10  5  1  0
  1 11  1  0
  8 12  1  0
 12 13  2  0
 13 14  1  0
 14 15  1  0
 15 16  1  0
 16 17  1  0
 17 13  1  0
 16 18  2  0
 14 19  2  0
 15 20  1  0
 20 21  1  0
 20 22  1  0
 22 23  1  0
 23 24  2  0
 24 25  1  0
 25 27  1  0
 26 23  1  0
 26 27  2  0
 27 28  1  0
 28 29  2  0
 29 30  1  0
 30 31  2  0
 31 26  1  0
 21 32  1  0
 21 33  2  0
 11 34  1  0
 34 35  1  0
 35 36  2  0
 36 37  1  0
 37 38  2  0
 38 39  1  0
 39 40  2  0
 40 35  1  0
 38 41  1  0
  2 42  1  0
  3 43  1  0
  4 44  1  0
  7 45  1  0
  9 46  1  0
 10 47  1  0
 12 48  1  0
 20 49  1  0
 22 50  1  0
 22 51  1  0
 24 52  1  0
 25 53  1  0
 28 54  1  0
 29 55  1  0
 30 56  1  0
 31 57  1  0
 32 58  1  0
 34 59  1  0
 34 60  1  0
 36 61  1  0
 37 62  1  0
 39 63  1  0
 40 64  1  0
M  END
> <Name>
Molecule

> <Clean Energy>
60.3934

> <From>
www.bindingDB.org

> <BindingDB Reactant_set_id>
51252824

> <Ligand InChI>
InChI=1S/C32H23ClN2O4S2/c33-24-10-6-19(7-11-24)18-39-25-12-9-21-13-20(5-8-22(21)15-25)14-29-30(36)35(32(40)41-29)28(31(37)38)16-23-17-34-27-4-2-1-3-26(23)27/h1-15,17,28,34H,16,18H2,(H,37,38)/b29-14-

> <Ligand InChI Key>
WVPFMXXRDUSLBG-NUJZUDFISA-N

> <BindingDB MonomerID>
50512275

> <BindingDB Ligand Name>
CHEMBL4434712

> <Target Name>
Tyrosine-protein phosphatase non-receptor type 1

> <Target Source Organism According to Curator or DataSource>
Homo sapiens

> <IC50 (nM)>
720

> <Curation/DataSource>
ChEMBL

> <Article DOI>
10.1016/j.ejmech.2019.03.059

> <BindingDB Entry DOI>
10.7270/Q2028VWB

> <PMID>
30978561

> <Authors>
Liu, H; Sun, D; Du, H; Zheng, C; Li, J; Piao, H; Li, J; Sun, L

> <Institution>
Yanbian University College of Pharmacy

> <Link to Ligand in BindingDB>
http://www.bindingdb.org/bind/chemsearch/marvin/MolStructure.jsp?monomerid=50512275

> <Link to Ligand-Target Pair in BindingDB>
http://www.bindingdb.org/jsp/dbsearch/PrimarySearch_ki.jsp?energyterm=kJ/mole&tag=pol&polymerid=2622&target=Tyrosine-protein+phosphatase+non-receptor+type+1&column=ki&startPg=0&Increment=50&submit=Sea
rch
http://www.bindingdb.org/jsp/dbsearch/PrimarySearch_ki.jsp?energyterm=kJ/mole&tag=r21&monomerid=50512275&enzyme=Tyrosine-protein+phosphatase+non-receptor+type+1&column=ki&startPg=0&Increment=50&submit
=Search

> <PubChem CID of Ligand>
155510754

> <PubChem SID of Ligand>
440720857

> <Number of Protein Chains in Target (bigger than 1 implies a multichain complex)>
1

> <BindingDB Target Chain Sequence>
MEMEKEFEQIDKSGSWAAIYQDIRHEASDFPCRVAKLPKNKNRNRYRDVSPFDHSRIKLHQEDNDYINASLIKMEEAQRSYILTQGPLPNTCGHFWEMVWEQKSRGVVMLNRVMEKGSLKCAQYWPQKEEKEMIFEDTNLKLTLISEDIKSYYTVRQLELENLTTQETREILHFHYTTWPDFGVPESPASFLNFLFKVRE
SGSLSPEHGPVVVHCSAGIGRSGTFCLADTCLLLMDKRKDPSSVDIKKVLLEMRKFRMGLIQTADQLRFSYLAVIEGAKFIMGDSSVQDQWKELSHEDLEPPPEHIPPPPRPPKRILEPHNGKCREFFPNHQWVKEETQEDKDCPIKEEKGSPLNAAPYGIESMSQDTEVRSRVVGGSLRGAQAASPAKGEPSLPEKDED
HALSYWKPFLVNMCVATVLTAGAYLCYRFLFNSNT

> <PDB ID(s) of Target Chain>
1BZJ,1G7G,1GFY,1JF7,1KAK,1KAV,1LQF,1NL9,1NNY,1NO6,1NZ7,1OEM,1OEO,1OES,1OET,1OEU,1OEV,1ONY,1ONZ,1PH0,1PXH,1PYN,1Q1M,1Q6J,1Q6M,1Q6N,1Q6P,1Q6S,1Q6T,1QXK,1SUG,1T48,1T49,1T4J,1WAX,1XBO,2AZR,2B07,2BGD,2BGE,
2CM2,2CM3,2CM7,2CM8,2CMA,2CMB,2CMC,2CNE,2CNF,2CNG,2CNH,2CNI,2F6T,2F6V,2F6W,2F6Y,2F6Z,2F70,2F71,2FJN,2H4G,2H4K,2HB1,2HNP,2HNQ,2QBP,2QBQ,2QBR,2QBS,2VEU,2VEV,2VEW,2VEX,2VEY,2ZMM,2ZN7,3A5J,3CWE,3D9C,3EAX,
3EB1,3EU0,3I7Z,3I80,3SME,4BJO,4I8N,4QBW,4Y14,5K9V,5K9W,5KA0,5KA1,5T19,6B90,6NTP,6W30,7KEY,7KLX,7LFO,7MN9,7MNA,8DU7,8G65,8G67,8G68,8G69,8G6A,8SKL

> <UniProt (SwissProt) Recommended Name of Target Chain>
Tyrosine-protein phosphatase non-receptor type 1

> <UniProt (SwissProt) Entry Name of Target Chain>
PTN1_HUMAN

> <UniProt (SwissProt) Primary ID of Target Chain>
P18031

> <UniProt (SwissProt) Secondary ID(s) of Target Chain>
Q5TGD8 Q9BQV9 Q9NQQ4

$$$$
Molecule
  SciTegic10242319433D

114118  0  0  0  0            999 V2000
    4.4247  -26.9943   -0.4211 C   0  0  2  0  0  0
    4.5573  -25.6134    0.2812 C   0  0
    3.2638  -27.8766    0.3218 C   0  0  1  0  0  0
    0.5715  -27.7183    0.7306 C   0  0  2  0  0  0
    7.1888  -25.4764   -0.4500 C   0  0  1  0  0  0
    5.8297  -24.7462    0.1222 C   0  0  1  0  0  0
    1.9079  -27.0015    0.2353 C   0  0  1  0  0  0
    0.4431  -29.0721   -0.1357 C   0  0  2  0  0  0
   -0.9198  -29.8915    0.1361 C   0  0
    3.5094  -25.0416    0.8825 C   0  0
    8.1689  -26.1333    0.5515 C   0  0
    5.8264  -27.6427   -0.5984 C   0  0
    2.9938  -29.1892   -0.4591 C   0  0
    2.1309  -25.7041    1.0769 C   0  0
    6.7466  -26.6071   -1.4113 C   0  0
   -0.6690  -26.8451    0.3909 C   0  0
    1.7216  -29.9637    0.1013 C   0  0
    8.0671  -24.4474   -1.2748 C   0  0
    5.5073  -23.7181   -0.9352 C   0  0
   -2.0795  -28.9151   -0.2046 C   0  0  2  0  0  0
    6.6367  -22.5726   -0.8156 C   0  0
   -2.0027  -27.6296    0.6991 C   0  0
    8.0446  -23.2030   -0.4834 C   0  0
    3.9901  -26.7481   -1.9088 C   0  0
    3.7455  -28.2458    1.7662 C   0  0
    0.5974  -27.9009    2.2847 C   0  0
   -3.3277  -29.5900   -0.0096 O   0  0
    6.3299  -21.5462    0.3089 C   0  0
    6.6550  -21.8271   -2.1583 C   0  0
   -1.1191  -30.4588    1.5748 C   0  0
   -0.9840  -31.1033   -0.8104 C   0  0
    7.8162  -26.7766    1.5482 O   0  0
    9.5788  -25.9075    0.1934 O   0  0
   10.6956  -26.4603    0.9729 C   0  0
   12.0350  -25.8507    0.3153 C   0  0
   13.4086  -26.4388    0.8548 C   0  0
   14.6524  -25.6937    0.1788 C   0  0
   16.0417  -26.3494    0.5771 C   0  0
   17.2783  -25.5449   -0.0061 C   0  0
   18.6408  -26.2758    0.3228 C   0  0
   19.8860  -25.4309   -0.1371 C   0  0
   21.2257  -26.2052    0.1338 C   0  0
   22.4561  -25.3102   -0.2181 C   0  0
   23.7629  -26.0633   -0.0227 C   0  0
   23.7541  -27.4225    0.2765 O   0  0
   24.8436  -25.4722   -0.1493 O   0  0
    6.0519  -24.2454    1.0645 H   0  0
    1.7649  -26.7065   -0.8042 H   0  0
    0.4417  -28.7834   -1.1867 H   0  0
    3.6395  -24.0291    1.2648 H   0  0
    6.2679  -27.8439    0.3777 H   0  0
    5.7358  -28.5749   -1.1559 H   0  0
    2.8243  -28.9463   -1.5080 H   0  0
    3.8665  -29.8365   -0.3720 H   0  0
    1.3642  -24.9816    0.7970 H   0  0
    2.0224  -25.9599    2.1309 H   0  0
    6.1783  -26.1833   -2.2392 H   0  0
    7.6248  -27.1231   -1.7991 H   0  0
   -0.6418  -25.9357    0.9912 H   0  0
   -0.6439  -26.5836   -0.6670 H   0  0
    1.8462  -30.1501    1.1680 H   0  0
    1.6094  -30.9125   -0.4233 H   0  0
    9.0878  -24.8148   -1.3812 H   0  0
    7.6355  -24.2810   -2.2618 H   0  0
    5.5360  -24.1737   -1.9250 H   0  0
    4.5192  -23.2931   -0.7588 H   0  0
   -1.9969  -28.6184   -1.2502 H   0  0
   -2.0166  -27.9230    1.7488 H   0  0
   -2.8581  -26.9873    0.4895 H   0  0
    8.1323  -23.4184    0.5815 H   0  0
    8.8507  -22.5351   -0.7871 H   0  0
    3.8906  -27.7046   -2.4218 H   0  0
    4.7437  -26.1428   -2.4126 H   0  0
    3.0336  -26.2257   -1.9267 H   0  0
    2.9765  -28.8339    2.2670 H   0  0
    3.9304  -27.3329    2.3325 H   0  0
    4.6652  -28.8277    1.7055 H   0  0
   -0.3205  -28.3912    2.6088 H   0  0
    0.6764  -26.9253    2.7644 H   0  0
    1.4543  -28.5135    2.5649 H   0  0
   -3.3745  -30.4292   -0.6390 H   0  0
    7.1219  -20.7983    0.3448 H   0  0
    6.2746  -22.0624    1.2674 H   0  0
    5.3776  -21.0567    0.1048 H   0  0
    7.4068  -21.0386   -2.1264 H   0  0
    5.6751  -21.3868   -2.3433 H   0  0
    6.8959  -22.5261   -2.9592 H   0  0
   -2.0707  -30.9875    1.6288 H   0  0
   -1.1186  -29.6385    2.2926 H   0  0
   -0.3076  -31.1474    1.8100 H   0  0
   -1.9042  -31.6586   -0.6287 H   0  0
   -0.1270  -31.7521   -0.6295 H   0  0
   -0.9665  -30.7587   -1.8444 H   0  0
   10.6149  -26.1592    2.0174 H   0  0
   10.7020  -27.5483    0.9074 H   0  0
   11.9926  -26.0354   -0.7582 H   0  0
   12.0374  -24.7765    0.4999 H   0  0
   13.4553  -26.3026    1.9352 H   0  0
   13.4586  -27.5019    0.6196 H   0  0
   14.5414  -25.7406   -0.9045 H   0  0
   14.6526  -24.6520    0.4997 H   0  0
   16.1195  -26.3714    1.6641 H   0  0
   16.0722  -27.3676    0.1894 H   0  0
   17.1709  -25.4626   -1.0877 H   0  0
   17.2940  -24.5481    0.4348 H   0  0
   18.7029  -26.4376    1.3989 H   0  0
   18.6579  -27.2369   -0.1912 H   0  0
   19.8028  -25.2263   -1.2045 H   0  0
   19.9010  -24.4903    0.4135 H   0  0
   21.2732  -26.4818    1.1870 H   0  0
   21.2499  -27.1054   -0.4803 H   0  0
   22.3800  -24.9961   -1.2591 H   0  0
   22.4525  -24.4324    0.4280 H   0  0
   23.2382  -27.5797    1.1774 H   0  0
  2  1  1  0
  3  1  1  0
  4  7  1  0
  5 15  1  0
  6  2  1  0
  7  3  1  0
  8 17  1  0
  9  8  1  0
 10  2  2  0
  5 11  1  0
 12  1  1  0
 13  3  1  0
  7 14  1  0
 15 12  1  0
 16  4  1  0
 17 13  1  0
 18  5  1  0
  6 19  1  0
 20  9  1  0
 21 19  1  0
 22 16  1  0
 23 18  1  0
  1 24  1  0
  3 25  1  0
  4 26  1  0
 20 27  1  0
 28 21  1  0
 29 21  1  0
  5  6  1  0
 14 10  1  0
  8  4  1  0
 21 23  1  0
 20 22  1  0
  9 30  1  0
  9 31  1  0
 11 32  2  0
 11 33  1  0
 33 34  1  0
 34 35  1  0
 35 36  1  0
 36 37  1  0
 37 38  1  0
 38 39  1  0
 39 40  1  0
 40 41  1  0
 41 42  1  0
 42 43  1  0
 43 44  1  0
 44 45  1  0
 44 46  2  0
  6 47  1  0
  7 48  1  0
  8 49  1  0
 10 50  1  0
 12 51  1  0
 12 52  1  0
 13 53  1  0
 13 54  1  0
 14 55  1  0
 14 56  1  0
 15 57  1  0
 15 58  1  0
 16 59  1  0
 16 60  1  0
 17 61  1  0
 17 62  1  0
 18 63  1  0
 18 64  1  0
 19 65  1  0
 19 66  1  0
 20 67  1  0
 22 68  1  0
 22 69  1  0
 23 70  1  0
 23 71  1  0
 24 72  1  0
 24 73  1  0
 24 74  1  0
 25 75  1  0
 25 76  1  0
 25 77  1  0
 26 78  1  0
 26 79  1  0
 26 80  1  0
 27 81  1  0
 28 82  1  0
 28 83  1  0
 28 84  1  0
 29 85  1  0
 29 86  1  0
 29 87  1  0
 30 88  1  0
 30 89  1  0
 30 90  1  0
 31 91  1  0
 31 92  1  0
 31 93  1  0
 34 94  1  0
 34 95  1  0
 35 96  1  0
 35 97  1  0
 36 98  1  0
 36 99  1  0
 37100  1  0
 37101  1  0
 38102  1  0
 38103  1  0
 39104  1  0
 39105  1  0
 40106  1  0
 40107  1  0
 41108  1  0
 41109  1  0
 42110  1  0
 42111  1  0
 43112  1  0
 43113  1  0
 45114  1  0
M  END
> <Name>
Molecule

> <Clean Energy>
121.575

> <From>
www.bindingDB.org

> <BindingDB Reactant_set_id>
51186515

> <Ligand InChI>
InChI=1S/C41H68O5/c1-36(2)23-25-41(35(45)46-27-15-13-11-9-8-10-12-14-16-34(43)44)26-24-39(6)29(30(41)28-36)17-18-32-38(5)21-20-33(42)37(3,4)31(38)19-22-40(32,39)7/h17,30-33,42H,8-16,18-28H2,1-7H3,(H,4
3,44)/t30-,31-,32+,33-,38-,39+,40+,41-/m0/s1

> <Ligand InChI Key>
WWHJCGNAVLGRQA-DRSVJKCWSA-N

> <BindingDB MonomerID>
50487822

> <BindingDB Ligand Name>
CHEMBL2263120

> <Target Name>
Tyrosine-protein phosphatase non-receptor type 1

> <Target Source Organism According to Curator or DataSource>
Homo sapiens

> <IC50 (nM)>
720

> <Curation/DataSource>
ChEMBL

> <Article DOI>
10.1007/s00044-010-9529-5

> <BindingDB Entry DOI>
10.7270/Q2F76GFZ

> <Authors>
n/a

> <Institution>
n/a

> <Link to Ligand in BindingDB>
http://www.bindingdb.org/bind/chemsearch/marvin/MolStructure.jsp?monomerid=50487822

> <Link to Ligand-Target Pair in BindingDB>
http://www.bindingdb.org/jsp/dbsearch/PrimarySearch_ki.jsp?energyterm=kJ/mole&tag=pol&polymerid=2622&target=Tyrosine-protein+phosphatase+non-receptor+type+1&column=ki&startPg=0&Increment=50&submit=Sea
rch
http://www.bindingdb.org/jsp/dbsearch/PrimarySearch_ki.jsp?energyterm=kJ/mole&tag=r21&monomerid=50487822&enzyme=Tyrosine-protein+phosphatase+non-receptor+type+1&column=ki&startPg=0&Increment=50&submit
=Search

> <PubChem CID of Ligand>
76308572

> <PubChem SID of Ligand>
433955087

> <Number of Protein Chains in Target (bigger than 1 implies a multichain complex)>
1

> <BindingDB Target Chain Sequence>
MEMEKEFEQIDKSGSWAAIYQDIRHEASDFPCRVAKLPKNKNRNRYRDVSPFDHSRIKLHQEDNDYINASLIKMEEAQRSYILTQGPLPNTCGHFWEMVWEQKSRGVVMLNRVMEKGSLKCAQYWPQKEEKEMIFEDTNLKLTLISEDIKSYYTVRQLELENLTTQETREILHFHYTTWPDFGVPESPASFLNFLFKVRE
SGSLSPEHGPVVVHCSAGIGRSGTFCLADTCLLLMDKRKDPSSVDIKKVLLEMRKFRMGLIQTADQLRFSYLAVIEGAKFIMGDSSVQDQWKELSHEDLEPPPEHIPPPPRPPKRILEPHNGKCREFFPNHQWVKEETQEDKDCPIKEEKGSPLNAAPYGIESMSQDTEVRSRVVGGSLRGAQAASPAKGEPSLPEKDED
HALSYWKPFLVNMCVATVLTAGAYLCYRFLFNSNT

> <PDB ID(s) of Target Chain>
1BZJ,1G7G,1GFY,1JF7,1KAK,1KAV,1LQF,1NL9,1NNY,1NO6,1NZ7,1OEM,1OEO,1OES,1OET,1OEU,1OEV,1ONY,1ONZ,1PH0,1PXH,1PYN,1Q1M,1Q6J,1Q6M,1Q6N,1Q6P,1Q6S,1Q6T,1QXK,1SUG,1T48,1T49,1T4J,1WAX,1XBO,2AZR,2B07,2BGD,2BGE,
2CM2,2CM3,2CM7,2CM8,2CMA,2CMB,2CMC,2CNE,2CNF,2CNG,2CNH,2CNI,2F6T,2F6V,2F6W,2F6Y,2F6Z,2F70,2F71,2FJN,2H4G,2H4K,2HB1,2HNP,2HNQ,2QBP,2QBQ,2QBR,2QBS,2VEU,2VEV,2VEW,2VEX,2VEY,2ZMM,2ZN7,3A5J,3CWE,3D9C,3EAX,
3EB1,3EU0,3I7Z,3I80,3SME,4BJO,4I8N,4QBW,4Y14,5K9V,5K9W,5KA0,5KA1,5T19,6B90,6NTP,6W30,7KEY,7KLX,7LFO,7MN9,7MNA,8DU7,8G65,8G67,8G68,8G69,8G6A,8SKL

> <UniProt (SwissProt) Recommended Name of Target Chain>
Tyrosine-protein phosphatase non-receptor type 1

> <UniProt (SwissProt) Entry Name of Target Chain>
PTN1_HUMAN

> <UniProt (SwissProt) Primary ID of Target Chain>
P18031

> <UniProt (SwissProt) Secondary ID(s) of Target Chain>
Q5TGD8 Q9BQV9 Q9NQQ4

$$$$
Molecule
  SciTegic10242319433D

111115  0  0  0  0            999 V2000
   19.9814  -11.7765    0.9713 C   0  0
   10.0107  -14.9543   -0.2507 C   0  0  1  0  0  0
    8.7836  -15.6683   -0.0695 O   0  0
   10.0271  -13.6560    0.6319 C   0  0
   11.3366  -12.8332    0.3338 C   0  0
   11.1984  -15.8855    0.1144 C   0  0
   12.5408  -15.0279   -0.1281 C   0  0  2  0  0  0
   13.8456  -15.8655    0.1410 C   0  0
   15.1070  -15.0545   -0.3917 C   0  0
   15.3014  -13.7174    0.3579 C   0  0  1  0  0  0
   15.7565  -14.0333    1.8342 C   0  0
   16.4444  -12.8004   -0.3475 C   0  0  2  0  0  0
   16.0641  -12.6127   -1.8620 C   0  0
   17.8906  -13.3994   -0.4422 C   0  0
   18.8478  -12.3526   -1.2057 C   0  0
   19.1263  -11.1840   -0.2276 C   0  0  2  0  0  0
   20.0459  -10.1028   -0.9587 C   0  0
   19.8602   -8.8319   -0.2412 C   0  0
   18.4765   -8.3084   -0.7887 C   0  0
   17.4268   -9.5206   -0.9618 C   0  0
   17.6959  -10.4754    0.1776 C   0  0  1  0  0  0
   16.4926  -11.4022    0.3045 C   0  0
   15.3876  -10.8578    0.8773 C   0  0
   14.0546  -11.5825    1.0454 C   0  0
   13.9153  -12.8984    0.2389 C   0  0  2  0  0  0
   12.5956  -13.6537    0.6978 C   0  0  1  0  0  0
   12.5950  -13.8118    2.2685 C   0  0
   10.9933  -16.4426    1.5626 C   0  0
   11.1937  -17.1112   -0.8112 C   0  0
   18.6289   -7.6481   -2.1679 C   0  0
   17.9797   -7.2381    0.2168 C   0  0
   21.3898  -12.1304    0.2656 C   0  0
   22.6513  -12.3622    1.1790 C   0  0
   23.9331  -12.1061    0.2622 C   0  0
   25.3193  -12.3483    0.9748 C   0  0
   26.5084  -11.8393    0.0573 C   0  0
   27.9148  -12.2264    0.6488 C   0  0
   29.0860  -11.5758   -0.1743 C   0  0
   30.4740  -12.1159    0.3124 C   0  0
   31.6424  -11.3553   -0.3866 C   0  0
   32.9816  -11.9746   -0.0260 C   0  0
   33.0319  -13.2147    0.6041 O   0  0
   34.0350  -11.3989   -0.3288 O   0  0
   19.5132  -12.6705    1.3831 H   0  0
   20.1133  -11.0378    1.7619 H   0  0
   10.0986  -14.6675   -1.2986 H   0  0
    8.6825  -15.9409    0.9395 H   0  0
    9.1543  -13.0467    0.3974 H   0  0
   10.0047  -13.9334    1.6858 H   0  0
   11.3247  -11.9167    0.9237 H   0  0
   11.3676  -12.5830   -0.7266 H   0  0
   12.5538  -14.7590   -1.1843 H   0  0
   13.9513  -16.0419    1.2114 H   0  0
   13.7797  -16.8205   -0.3804 H   0  0
   15.9995  -15.6655   -0.2564 H   0  0
   14.9669  -14.8449   -1.4521 H   0  0
   16.6962  -14.5853    1.8150 H   0  0
   14.9933  -14.6334    2.3296 H   0  0
   15.8951  -13.0999    2.3798 H   0  0
   16.0224  -13.5864   -2.3500 H   0  0
   16.8156  -11.9934   -2.3517 H   0  0
   15.0905  -12.1281   -1.9353 H   0  0
   18.2762  -13.5814    0.5610 H   0  0
   17.8611  -14.3376   -0.9963 H   0  0
   19.7837  -12.8373   -1.4835 H   0  0
   18.3518  -11.9788   -2.1015 H   0  0
   19.7415   -9.9938   -1.9997 H   0  0
   21.0912  -10.4087   -0.9155 H   0  0
   19.8183   -8.9938    0.8359 H   0  0
   20.6625   -8.1314   -0.4729 H   0  0
   16.4046   -9.1461   -0.9077 H   0  0
   17.5810  -10.0204   -1.9181 H   0  0
   17.8191   -9.9116    1.1023 H   0  0
   15.4575   -9.8330    1.2419 H   0  0
   13.9302  -11.8195    2.1021 H   0  0
   13.2605  -10.9066    0.7282 H   0  0
   13.7870  -12.6261   -0.8087 H   0  0
   11.6888  -14.3302    2.5816 H   0  0
   12.6282  -12.8264    2.7333 H   0  0
   13.4674  -14.3880    2.5765 H   0  0
   10.9871  -15.6160    2.2729 H   0  0
   11.8064  -17.1258    1.8081 H   0  0
   10.0435  -16.9746    1.6166 H   0  0
   11.3334  -16.7885   -1.8429 H   0  0
   10.2408  -17.6324   -0.7200 H   0  0
   12.0037  -17.7836   -0.5286 H   0  0
   17.6559   -7.2994   -2.5139 H   0  0
   19.0272   -8.3741   -2.8768 H   0  0
   19.3119   -6.8019   -2.0927 H   0  0
   17.0208   -6.8421   -0.1175 H   0  0
   18.7066   -6.4278    0.2744 H   0  0
   17.8620   -7.6907    1.2014 H   0  0
   21.2395  -13.0422   -0.3125 H   0  0
   21.6276  -11.3073   -0.4082 H   0  0
   22.6425  -11.6641    2.0161 H   0  0
   22.6583  -13.3843    1.5577 H   0  0
   23.8732  -12.7738   -0.5972 H   0  0
   23.9040  -11.0711   -0.0785 H   0  0
   25.3370  -11.8053    1.9198 H   0  0
   25.4437  -13.4143    1.1654 H   0  0
   26.4069  -12.2872   -0.9313 H   0  0
   26.4485  -10.7542   -0.0270 H   0  0
   27.9723  -11.8797    1.6806 H   0  0
   28.0235  -13.3106    0.6226 H   0  0
   28.9584  -11.8175   -1.2295 H   0  0
   29.0573  -10.4941   -0.0428 H   0  0
   30.5527  -11.9776    1.3907 H   0  0
   30.5469  -13.1774    0.0754 H   0  0
   31.5052  -11.4048   -1.4668 H   0  0
   31.6327  -10.3135   -0.0659 H   0  0
   32.5236  -13.1626    1.5214 H   0  0
 17 18  1  0
 18 19  1  0
 19 20  1  0
 21 20  1  0
 16 21  1  0
 21 22  1  0
 12 22  1  0
 22 23  2  0
 23 24  1  0
 25 24  1  0
 10 25  1  0
 25 26  1  0
 26  5  1  0
 26  7  1  0
 26 27  1  0
  2  3  1  0
  6 28  1  0
  2  4  1  0
  6 29  1  0
  4  5  1  0
 19 30  1  0
  2  6  1  0
 19 31  1  0
  7  6  1  0
  1 32  1  0
  7  8  1  0
 32 33  1  0
  8  9  1  0
 33 34  1  0
 10  9  1  0
 34 35  1  0
 10 11  1  0
 35 36  1  0
 10 12  1  0
 36 37  1  0
 12 13  1  0
 37 38  1  0
 12 14  1  0
 38 39  1  0
 14 15  1  0
 39 40  1  0
 16 15  1  0
 40 41  1  0
 16  1  1  0
 16 17  1  0
 41 42  1  0
 41 43  2  0
  1 44  1  0
  1 45  1  0
  2 46  1  0
  3 47  1  0
  4 48  1  0
  4 49  1  0
  5 50  1  0
  5 51  1  0
  7 52  1  0
  8 53  1  0
  8 54  1  0
  9 55  1  0
  9 56  1  0
 11 57  1  0
 11 58  1  0
 11 59  1  0
 13 60  1  0
 13 61  1  0
 13 62  1  0
 14 63  1  0
 14 64  1  0
 15 65  1  0
 15 66  1  0
 17 67  1  0
 17 68  1  0
 18 69  1  0
 18 70  1  0
 20 71  1  0
 20 72  1  0
 21 73  1  0
 23 74  1  0
 24 75  1  0
 24 76  1  0
 25 77  1  0
 27 78  1  0
 27 79  1  0
 27 80  1  0
 28 81  1  0
 28 82  1  0
 28 83  1  0
 29 84  1  0
 29 85  1  0
 29 86  1  0
 30 87  1  0
 30 88  1  0
 30 89  1  0
 31 90  1  0
 31 91  1  0
 31 92  1  0
 32 93  1  0
 32 94  1  0
 33 95  1  0
 33 96  1  0
 34 97  1  0
 34 98  1  0
 35 99  1  0
 35100  1  0
 36101  1  0
 36102  1  0
 37103  1  0
 37104  1  0
 38105  1  0
 38106  1  0
 39107  1  0
 39108  1  0
 40109  1  0
 40110  1  0
 42111  1  0
M  END
> <Name>
Molecule

> <Clean Energy>
105.085

> <From>
www.bindingDB.org

> <BindingDB Reactant_set_id>
50428378

> <Ligand InChI>
InChI=1S/C40H68O3/c1-35(2)24-26-40(21-15-13-11-9-8-10-12-14-16-34(42)43)27-25-38(6)29(30(40)28-35)17-18-32-37(5)22-20-33(41)36(3,4)31(37)19-23-39(32,38)7/h17,30-33,41H,8-16,18-28H2,1-7H3,(H,42,43)/t30
-,31-,32+,33-,37-,38+,39+,40+/m0/s1

> <Ligand InChI Key>
STIKTLOALVBTPP-TWQDJVLQSA-N

> <BindingDB MonomerID>
50246624

> <BindingDB Ligand Name>
11-((4aR,6aS,6bR,8aR,10S,12aR,12bR,14bR)-10-hydroxy-2,2,6a,6b,9,9,12a-heptamethyl-1,2,3,4,4a,5,6,6a,6b,7,8,8a,9,10,11,12,12a,12b,13,14b-icosahydropicen-4a-yl)undecanoic acid::CHEMBL501267

> <Target Name>
Tyrosine-protein phosphatase non-receptor type 1

> <Target Source Organism According to Curator or DataSource>
Homo sapiens

> <IC50 (nM)>
720

> <Curation/DataSource>
ChEMBL

> <Article DOI>
10.1016/j.bmc.2008.07.080

> <BindingDB Entry DOI>
10.7270/Q2HX1CH7

> <PMID>
18707891

> <Authors>
Zhang, YN; Zhang, W; Hong, D; Shi, L; Shen, Q; Li, JY; Li, J; Hu, LH

> <Institution>
Chinese Academy of Sciences

> <Link to Ligand in BindingDB>
http://www.bindingdb.org/bind/chemsearch/marvin/MolStructure.jsp?monomerid=50246624

> <Link to Ligand-Target Pair in BindingDB>
http://www.bindingdb.org/jsp/dbsearch/PrimarySearch_ki.jsp?energyterm=kJ/mole&tag=pol&polymerid=2622&target=Tyrosine-protein+phosphatase+non-receptor+type+1&column=ki&startPg=0&Increment=50&submit=Sea
rch
http://www.bindingdb.org/jsp/dbsearch/PrimarySearch_ki.jsp?energyterm=kJ/mole&tag=r21&monomerid=50246624&enzyme=Tyrosine-protein+phosphatase+non-receptor+type+1&column=ki&startPg=0&Increment=50&submit
=Search

> <PubChem CID of Ligand>
44563348

> <PubChem SID of Ligand>
104102012

> <ChEMBL ID of Ligand>
CHEMBL501267

> <ZINC ID of Ligand>
ZINC42803510

> <Number of Protein Chains in Target (bigger than 1 implies a multichain complex)>
1

> <BindingDB Target Chain Sequence>
MEMEKEFEQIDKSGSWAAIYQDIRHEASDFPCRVAKLPKNKNRNRYRDVSPFDHSRIKLHQEDNDYINASLIKMEEAQRSYILTQGPLPNTCGHFWEMVWEQKSRGVVMLNRVMEKGSLKCAQYWPQKEEKEMIFEDTNLKLTLISEDIKSYYTVRQLELENLTTQETREILHFHYTTWPDFGVPESPASFLNFLFKVRE
SGSLSPEHGPVVVHCSAGIGRSGTFCLADTCLLLMDKRKDPSSVDIKKVLLEMRKFRMGLIQTADQLRFSYLAVIEGAKFIMGDSSVQDQWKELSHEDLEPPPEHIPPPPRPPKRILEPHNGKCREFFPNHQWVKEETQEDKDCPIKEEKGSPLNAAPYGIESMSQDTEVRSRVVGGSLRGAQAASPAKGEPSLPEKDED
HALSYWKPFLVNMCVATVLTAGAYLCYRFLFNSNT

> <PDB ID(s) of Target Chain>
1BZJ,1G7G,1GFY,1JF7,1KAK,1KAV,1LQF,1NL9,1NNY,1NO6,1NZ7,1OEM,1OEO,1OES,1OET,1OEU,1OEV,1ONY,1ONZ,1PH0,1PXH,1PYN,1Q1M,1Q6J,1Q6M,1Q6N,1Q6P,1Q6S,1Q6T,1QXK,1SUG,1T48,1T49,1T4J,1WAX,1XBO,2AZR,2B07,2BGD,2BGE,
2CM2,2CM3,2CM7,2CM8,2CMA,2CMB,2CMC,2CNE,2CNF,2CNG,2CNH,2CNI,2F6T,2F6V,2F6W,2F6Y,2F6Z,2F70,2F71,2FJN,2H4G,2H4K,2HB1,2HNP,2HNQ,2QBP,2QBQ,2QBR,2QBS,2VEU,2VEV,2VEW,2VEX,2VEY,2ZMM,2ZN7,3A5J,3CWE,3D9C,3EAX,
3EB1,3EU0,3I7Z,3I80,3SME,4BJO,4I8N,4QBW,4Y14,5K9V,5K9W,5KA0,5KA1,5T19,6B90,6NTP,6W30,7KEY,7KLX,7LFO,7MN9,7MNA,8DU7,8G65,8G67,8G68,8G69,8G6A,8SKL

> <UniProt (SwissProt) Recommended Name of Target Chain>
Tyrosine-protein phosphatase non-receptor type 1

> <UniProt (SwissProt) Entry Name of Target Chain>
PTN1_HUMAN

> <UniProt (SwissProt) Primary ID of Target Chain>
P18031

> <UniProt (SwissProt) Secondary ID(s) of Target Chain>
Q5TGD8 Q9BQV9 Q9NQQ4

$$$$
Molecule
  SciTegic10242319433D

 81 85  0  0  0  0            999 V2000
    4.5765  -15.7437    0.7679 C   0  0
    4.5177  -17.0454   -0.1102 C   0  0  1  0  0  0
    5.7280  -17.9691    0.1876 C   0  0
    5.8552  -14.9120    0.3800 C   0  0
    7.1301  -15.7283    0.6869 C   0  0  1  0  0  0
    7.0335  -17.1034   -0.1469 C   0  0  1  0  0  0
    8.3424  -17.9482    0.0610 C   0  0
    9.5640  -17.1438   -0.5324 C   0  0
    8.4208  -14.9786    0.1411 C   0  0  2  0  0  0
    9.7843  -15.8159    0.2259 C   0  0  2  0  0  0
    9.9580  -12.9775    0.7708 C   0  0
    8.6002  -13.6592    0.9521 C   0  0
   11.0150  -13.5477    0.1819 C   0  0
   10.9123  -14.9473   -0.4964 C   0  0  1  0  0  0
   12.2700  -15.6788   -0.5242 C   0  0
   13.4105  -14.7557   -1.0602 C   0  0
   12.2939  -12.7157    0.1032 C   0  0  1  0  0  0
   13.6470  -13.6015   -0.0196 C   0  0  2  0  0  0
   14.8415  -12.7035   -0.5657 C   0  0
   14.6661  -11.3607    0.0156 C   0  0
   13.4673  -10.7283   -0.8148 C   0  0
   12.3135  -11.8244   -1.1103 C   0  0
    5.6789  -19.1941   -0.7415 C   0  0
    5.6211  -18.5292    1.6397 C   0  0
    7.1986  -15.8675    2.2508 C   0  0
   10.2988  -16.1544    1.6713 C   0  0
   10.5545  -14.7090   -2.0021 C   0  0
   12.9379   -9.5400    0.0304 C   0  0
   13.9339  -10.1841   -2.1749 C   0  0
   13.9938  -14.1798    1.3802 C   0  0
   13.3260  -15.0582    1.9359 O   0  0
   15.0969  -13.6728    2.0600 O   0  0
    3.3123  -17.7680    0.1511 O   0  0
    3.6842  -15.1437    0.5896 H   0  0
    4.6263  -16.0176    1.8217 H   0  0
    4.5392  -16.7629   -1.1628 H   0  0
    5.8720  -13.9867    0.9558 H   0  0
    5.8242  -14.6779   -0.6841 H   0  0
    6.9839  -16.8385   -1.2030 H   0  0
    8.5007  -18.1230    1.1252 H   0  0
    8.2476  -18.9039   -0.4546 H   0  0
   10.4639  -17.7532   -0.4495 H   0  0
    9.3683  -16.9247   -1.5820 H   0  0
    8.2465  -14.7161   -0.9023 H   0  0
   10.0713  -11.9605    1.1461 H   0  0
    7.8248  -12.9600    0.6389 H   0  0
    8.4753  -13.8911    2.0098 H   0  0
   12.5200  -15.9985    0.4874 H   0  0
   12.1880  -16.5517   -1.1719 H   0  0
   14.3260  -15.3348   -1.1814 H   0  0
   13.1189  -14.3308   -2.0207 H   0  0
   12.3624  -12.0937    0.9956 H   0  0
   15.7984  -13.1239   -0.2563 H   0  0
   14.8028  -12.6491   -1.6537 H   0  0
   14.4102  -11.4281    1.0730 H   0  0
   15.5728  -10.7674   -0.1023 H   0  0
   12.5541  -12.4008   -2.0036 H   0  0
   11.3477  -11.3364   -1.2413 H   0  0
    4.7915  -19.7858   -0.5169 H   0  0
    6.5696  -19.8032   -0.5879 H   0  0
    5.6406  -18.8624   -1.7792 H   0  0
    4.6963  -19.0967    1.7436 H   0  0
    5.6208  -17.7021    2.3496 H   0  0
    6.4712  -19.1808    1.8418 H   0  0
    8.0848  -16.4389    2.5268 H   0  0
    6.3080  -16.3837    2.6095 H   0  0
    7.2504  -14.8768    2.7024 H   0  0
    9.5498  -16.7490    2.1941 H   0  0
   10.4757  -15.2295    2.2204 H   0  0
   11.2283  -16.7197    1.6036 H   0  0
   11.3379  -14.1150   -2.4727 H   0  0
    9.6054  -14.1775   -2.0709 H   0  0
   10.4709  -15.6686   -2.5125 H   0  0
   12.1084   -9.0631   -0.4918 H   0  0
   13.7378   -8.8146    0.1794 H   0  0
   12.5949   -9.9060    0.9981 H   0  0
   13.0830   -9.7612   -2.7089 H   0  0
   14.3646  -10.9948   -2.7627 H   0  0
   14.6853   -9.4101   -2.0187 H   0  0
   15.9632  -13.8279    1.4872 H   0  0
    3.2784  -18.0380    1.1653 H   0  0
 17 22  1  0
 18 19  1  0
 19 20  1  0
 20 21  1  0
 21 22  1  0
  6  3  1  0
  3 23  1  0
  5  4  1  0
  3 24  1  0
  5  6  1  0
  9 12  1  0
  5 25  1  0
 10 14  1  0
 10 26  1  0
 13 11  2  0
 11 12  1  0
 14 13  1  0
 14 27  1  0
 21 28  1  0
  2  1  1  0
 21 29  1  0
 18 30  1  0
  1  4  1  0
 30 31  2  0
 17 13  1  0
 30 32  1  0
 14 15  1  0
  2 33  1  0
 15 16  1  0
 18 16  1  0
 17 18  1  0
  5  9  1  0
  6  7  1  0
  7  8  1  0
 10  8  1  0
  9 10  1  0
  2  3  1  0
  1 34  1  0
  1 35  1  0
  2 36  1  0
  4 37  1  0
  4 38  1  0
  6 39  1  0
  7 40  1  0
  7 41  1  0
  8 42  1  0
  8 43  1  0
  9 44  1  0
 11 45  1  0
 12 46  1  0
 12 47  1  0
 15 48  1  0
 15 49  1  0
 16 50  1  0
 16 51  1  0
 17 52  1  0
 19 53  1  0
 19 54  1  0
 20 55  1  0
 20 56  1  0
 22 57  1  0
 22 58  1  0
 23 59  1  0
 23 60  1  0
 23 61  1  0
 24 62  1  0
 24 63  1  0
 24 64  1  0
 25 65  1  0
 25 66  1  0
 25 67  1  0
 26 68  1  0
 26 69  1  0
 26 70  1  0
 27 71  1  0
 27 72  1  0
 27 73  1  0
 28 74  1  0
 28 75  1  0
 28 76  1  0
 29 77  1  0
 29 78  1  0
 29 79  1  0
 32 80  1  0
 33 81  1  0
M  END
> <Name>
Molecule

> <Clean Energy>
100.16

> <From>
www.bindingDB.org

> <BindingDB Reactant_set_id>
50447088

> <Ligand InChI>
InChI=1S/C30H48O3/c1-25(2)14-16-30(24(32)33)17-15-28(6)19(20(30)18-25)8-9-22-27(5)12-11-23(31)26(3,4)21(27)10-13-29(22,28)7/h8,20-23,31H,9-18H2,1-7H3,(H,32,33)/t20-,21-,22+,23-,27-,28+,29+,30-/m0/s1

> <Ligand InChI Key>
MIJYXULNPSFWEK-GTOFXWBISA-N

> <BindingDB MonomerID>
50346601

> <BindingDB Ligand Name>
NSC-114945::OLEANOLIC_ACID::Oleanolic acid::Oleanolic acid (OA)(Compound 1)::US11660306, Example Oleanolic acid

> <Target Name>
Tyrosine-protein phosphatase non-receptor type 1

> <Target Source Organism According to Curator or DataSource>
Homo sapiens

> <IC50 (nM)>
730

> <Curation/DataSource>
ChEMBL

> <Article DOI>
10.1016/j.bmcl.2015.12.022

> <BindingDB Entry DOI>
10.7270/Q2SF2Z0K

> <PMID>
26711144

> <Authors>
Abdjul, DB; Kanno, S; Yamazaki, H; Ukai, K; Namikoshi, M

> <Institution>
Tohoku Pharmaceutical University

> <Link to Ligand in BindingDB>
http://www.bindingdb.org/bind/chemsearch/marvin/MolStructure.jsp?monomerid=50346601

> <Link to Ligand-Target Pair in BindingDB>
http://www.bindingdb.org/jsp/dbsearch/PrimarySearch_ki.jsp?energyterm=kJ/mole&tag=pol&polymerid=2622&target=Tyrosine-protein+phosphatase+non-receptor+type+1&column=ki&startPg=0&Increment=50&submit=Sea
rch
http://www.bindingdb.org/jsp/dbsearch/PrimarySearch_ki.jsp?energyterm=kJ/mole&tag=r21&monomerid=50346601&enzyme=Tyrosine-protein+phosphatase+non-receptor+type+1&column=ki&startPg=0&Increment=50&submit
=Search

> <PubChem CID of Ligand>
10494

> <PubChem SID of Ligand>
136353287

> <ChEBI ID of Ligand>
37659

> <IUPHAR_GRAC ID of Ligand>
3306

> <KEGG ID of Ligand>
C17148

> <ZINC ID of Ligand>
ZINC38140516

> <Number of Protein Chains in Target (bigger than 1 implies a multichain complex)>
1

> <BindingDB Target Chain Sequence>
MEMEKEFEQIDKSGSWAAIYQDIRHEASDFPCRVAKLPKNKNRNRYRDVSPFDHSRIKLHQEDNDYINASLIKMEEAQRSYILTQGPLPNTCGHFWEMVWEQKSRGVVMLNRVMEKGSLKCAQYWPQKEEKEMIFEDTNLKLTLISEDIKSYYTVRQLELENLTTQETREILHFHYTTWPDFGVPESPASFLNFLFKVRE
SGSLSPEHGPVVVHCSAGIGRSGTFCLADTCLLLMDKRKDPSSVDIKKVLLEMRKFRMGLIQTADQLRFSYLAVIEGAKFIMGDSSVQDQWKELSHEDLEPPPEHIPPPPRPPKRILEPHNGKCREFFPNHQWVKEETQEDKDCPIKEEKGSPLNAAPYGIESMSQDTEVRSRVVGGSLRGAQAASPAKGEPSLPEKDED
HALSYWKPFLVNMCVATVLTAGAYLCYRFLFNSNT

> <PDB ID(s) of Target Chain>
1BZJ,1G7G,1GFY,1JF7,1KAK,1KAV,1LQF,1NL9,1NNY,1NO6,1NZ7,1OEM,1OEO,1OES,1OET,1OEU,1OEV,1ONY,1ONZ,1PH0,1PXH,1PYN,1Q1M,1Q6J,1Q6M,1Q6N,1Q6P,1Q6S,1Q6T,1QXK,1SUG,1T48,1T49,1T4J,1WAX,1XBO,2AZR,2B07,2BGD,2BGE,
2CM2,2CM3,2CM7,2CM8,2CMA,2CMB,2CMC,2CNE,2CNF,2CNG,2CNH,2CNI,2F6T,2F6V,2F6W,2F6Y,2F6Z,2F70,2F71,2FJN,2H4G,2H4K,2HB1,2HNP,2HNQ,2QBP,2QBQ,2QBR,2QBS,2VEU,2VEV,2VEW,2VEX,2VEY,2ZMM,2ZN7,3A5J,3CWE,3D9C,3EAX,
3EB1,3EU0,3I7Z,3I80,3SME,4BJO,4I8N,4QBW,4Y14,5K9V,5K9W,5KA0,5KA1,5T19,6B90,6NTP,6W30,7KEY,7KLX,7LFO,7MN9,7MNA,8DU7,8G65,8G67,8G68,8G69,8G6A,8SKL

> <UniProt (SwissProt) Recommended Name of Target Chain>
Tyrosine-protein phosphatase non-receptor type 1

> <UniProt (SwissProt) Entry Name of Target Chain>
PTN1_HUMAN

> <UniProt (SwissProt) Primary ID of Target Chain>
P18031

> <UniProt (SwissProt) Secondary ID(s) of Target Chain>
Q5TGD8 Q9BQV9 Q9NQQ4

$$$$
Molecule
  SciTegic10242319433D

 48 51  0  0  0  0            999 V2000
    3.6503  -22.7825   -0.0001 C   0  0
    4.7311  -23.7893   -0.0001 C   0  0
    5.3639  -21.0454   -0.0001 C   0  0
    3.9520  -21.4770   -0.0002 C   0  0
    6.3011  -21.9910    0.0000 C   0  0
    5.9818  -23.3448    0.0000 C   0  0
    7.1196  -24.0792    0.0001 O   0  0
    8.2021  -23.1840    0.0001 C   0  0
    7.7673  -21.8955    0.0001 C   0  0
    8.5960  -20.5844    0.0001 C   0  0
   10.0768  -20.5793    0.0004 C   0  0
   10.7626  -19.4398    0.0003 C   0  0
   10.0587  -18.1682    0.0000 C   0  0
    8.7300  -18.1481   -0.0003 C   0  0
    7.9768  -19.4010   -0.0002 C   0  0
   10.8091  -16.9188   -0.0001 C   0  0
   12.1407  -16.9430    0.0002 C   0  0
   12.8945  -15.6891    0.0001 C   0  0
   12.2484  -14.5243   -0.0003 C   0  0
   10.7837  -14.4978   -0.0007 C   0  0
   10.0981  -15.6390   -0.0005 C   0  0
   12.9646  -13.3328   -0.0004 O   0  0
    9.6294  -23.6803    0.0002 C   0  0
    9.6595  -25.2151    0.0000 C   0  0
   11.1265  -25.6826    0.0000 C   0  0
   11.1802  -27.2201   -0.0001 C   0  0
    2.6080  -23.1013   -0.0002 H   0  0
    4.5101  -24.8566   -0.0001 H   0  0
    5.6300  -19.9884   -0.0001 H   0  0
    3.1549  -20.7335   -0.0002 H   0  0
   10.6148  -21.5273    0.0006 H   0  0
   11.8524  -19.4596    0.0005 H   0  0
    8.2005  -17.1953   -0.0005 H   0  0
    6.8873  -19.3688   -0.0004 H   0  0
   12.6686  -17.8966    0.0005 H   0  0
   13.9844  -15.7081    0.0003 H   0  0
   10.2555  -13.5443   -0.0010 H   0  0
    9.0082  -15.6206   -0.0008 H   0  0
   13.5691  -13.2871    0.8569 H   0  0
   10.1386  -23.3107   -0.8899 H   0  0
   10.1384  -23.3109    0.8904 H   0  0
    9.1552  -25.5914    0.8901 H   0  0
    9.1553  -25.5912   -0.8902 H   0  0
   11.6278  -25.3025   -0.8900 H   0  0
   11.6278  -25.3027    0.8902 H   0  0
   12.2197  -27.5478   -0.0001 H   0  0
   10.6795  -27.6016   -0.8901 H   0  0
   10.6795  -27.6018    0.8897 H   0  0
 12 13  1  0
  5  3  2  0
 13 14  2  0
  1  2  1  0
 14 15  1  0
 15 10  2  0
  3  4  1  0
  6  7  1  0
 16 17  2  0
  7  8  1  0
 17 18  1  0
  8  9  2  0
 18 19  2  0
  9  5  1  0
 19 20  1  0
  4  1  2  0
 20 21  2  0
 21 16  1  0
 13 16  1  0
  9 10  1  0
 19 22  1  0
  5  6  1  0
  8 23  1  0
 10 11  1  0
 23 24  1  0
  2  6  2  0
 24 25  1  0
 11 12  2  0
 25 26  1  0
  1 27  1  0
  2 28  1  0
  3 29  1  0
  4 30  1  0
 11 31  1  0
 12 32  1  0
 14 33  1  0
 15 34  1  0
 17 35  1  0
 18 36  1  0
 20 37  1  0
 21 38  1  0
 22 39  1  0
 23 40  1  0
 23 41  1  0
 24 42  1  0
 24 43  1  0
 25 44  1  0
 25 45  1  0
 26 46  1  0
 26 47  1  0
 26 48  1  0
M  END
> <Name>
Molecule

> <Clean Energy>
24.9185

> <From>
www.bindingDB.org

> <BindingDB Reactant_set_id>
50454533

> <Ligand InChI>
InChI=1S/C24H22O2/c1-2-3-7-23-24(21-6-4-5-8-22(21)26-23)19-11-9-17(10-12-19)18-13-15-20(25)16-14-18/h4-6,8-16,25H,2-3,7H2,1H3

> <Ligand InChI Key>
JIBMWJCMDPEYQP-UHFFFAOYSA-N

> <BindingDB MonomerID>
50086976

> <BindingDB Ligand Name>
4''-(2-Butyl-benzofuran-3-yl)-biphenyl-4-ol::4'-(2-Butyl-benzofuran-3-yl)-biphenyl-4-ol::4'-(2-butylbenzofuran-3-yl)biphenyl-4-ol::CHEMBL286007

> <Target Name>
Tyrosine-protein phosphatase non-receptor type 1

> <Target Source Organism According to Curator or DataSource>
Homo sapiens

> <IC50 (nM)>
740

> <Curation/DataSource>
ChEMBL

> <Article DOI>
10.1016/j.bmc.2009.02.060

> <BindingDB Entry DOI>
10.7270/Q2K0745F

> <PMID>
19297174

> <Authors>
Forghieri, M; Laggner, C; Paoli, P; Langer, T; Manao, G; Camici, G; Bondioli, L; Prati, F; Costantino, L

> <Institution>
University of Modena and R.E.

> <Link to Ligand in BindingDB>
http://www.bindingdb.org/bind/chemsearch/marvin/MolStructure.jsp?monomerid=50086976

> <Link to Ligand-Target Pair in BindingDB>
http://www.bindingdb.org/jsp/dbsearch/PrimarySearch_ki.jsp?energyterm=kJ/mole&tag=pol&polymerid=2622&target=Tyrosine-protein+phosphatase+non-receptor+type+1&column=ki&startPg=0&Increment=50&submit=Sea
rch
http://www.bindingdb.org/jsp/dbsearch/PrimarySearch_ki.jsp?energyterm=kJ/mole&tag=r21&monomerid=50086976&enzyme=Tyrosine-protein+phosphatase+non-receptor+type+1&column=ki&startPg=0&Increment=50&submit
=Search

> <PubChem CID of Ligand>
10854796

> <PubChem SID of Ligand>
103986087

> <ChEMBL ID of Ligand>
CHEMBL286007

> <ZINC ID of Ligand>
ZINC13806731

> <Number of Protein Chains in Target (bigger than 1 implies a multichain complex)>
1

> <BindingDB Target Chain Sequence>
MEMEKEFEQIDKSGSWAAIYQDIRHEASDFPCRVAKLPKNKNRNRYRDVSPFDHSRIKLHQEDNDYINASLIKMEEAQRSYILTQGPLPNTCGHFWEMVWEQKSRGVVMLNRVMEKGSLKCAQYWPQKEEKEMIFEDTNLKLTLISEDIKSYYTVRQLELENLTTQETREILHFHYTTWPDFGVPESPASFLNFLFKVRE
SGSLSPEHGPVVVHCSAGIGRSGTFCLADTCLLLMDKRKDPSSVDIKKVLLEMRKFRMGLIQTADQLRFSYLAVIEGAKFIMGDSSVQDQWKELSHEDLEPPPEHIPPPPRPPKRILEPHNGKCREFFPNHQWVKEETQEDKDCPIKEEKGSPLNAAPYGIESMSQDTEVRSRVVGGSLRGAQAASPAKGEPSLPEKDED
HALSYWKPFLVNMCVATVLTAGAYLCYRFLFNSNT

> <PDB ID(s) of Target Chain>
1BZJ,1G7G,1GFY,1JF7,1KAK,1KAV,1LQF,1NL9,1NNY,1NO6,1NZ7,1OEM,1OEO,1OES,1OET,1OEU,1OEV,1ONY,1ONZ,1PH0,1PXH,1PYN,1Q1M,1Q6J,1Q6M,1Q6N,1Q6P,1Q6S,1Q6T,1QXK,1SUG,1T48,1T49,1T4J,1WAX,1XBO,2AZR,2B07,2BGD,2BGE,
2CM2,2CM3,2CM7,2CM8,2CMA,2CMB,2CMC,2CNE,2CNF,2CNG,2CNH,2CNI,2F6T,2F6V,2F6W,2F6Y,2F6Z,2F70,2F71,2FJN,2H4G,2H4K,2HB1,2HNP,2HNQ,2QBP,2QBQ,2QBR,2QBS,2VEU,2VEV,2VEW,2VEX,2VEY,2ZMM,2ZN7,3A5J,3CWE,3D9C,3EAX,
3EB1,3EU0,3I7Z,3I80,3SME,4BJO,4I8N,4QBW,4Y14,5K9V,5K9W,5KA0,5KA1,5T19,6B90,6NTP,6W30,7KEY,7KLX,7LFO,7MN9,7MNA,8DU7,8G65,8G67,8G68,8G69,8G6A,8SKL

> <UniProt (SwissProt) Recommended Name of Target Chain>
Tyrosine-protein phosphatase non-receptor type 1

> <UniProt (SwissProt) Entry Name of Target Chain>
PTN1_HUMAN

> <UniProt (SwissProt) Primary ID of Target Chain>
P18031

> <UniProt (SwissProt) Secondary ID(s) of Target Chain>
Q5TGD8 Q9BQV9 Q9NQQ4

$$$$
Molecule
  SciTegic10242319433D

 48 51  0  0  0  0            999 V2000
    3.6503  -22.7825   -0.0001 C   0  0
    4.7311  -23.7893   -0.0001 C   0  0
    5.3639  -21.0454   -0.0001 C   0  0
    3.9520  -21.4770   -0.0002 C   0  0
    6.3011  -21.9910    0.0000 C   0  0
    5.9818  -23.3448    0.0000 C   0  0
    7.1196  -24.0792    0.0001 O   0  0
    8.2021  -23.1840    0.0001 C   0  0
    7.7673  -21.8955    0.0001 C   0  0
    8.5960  -20.5844    0.0001 C   0  0
   10.0768  -20.5793    0.0004 C   0  0
   10.7626  -19.4398    0.0003 C   0  0
   10.0587  -18.1682    0.0000 C   0  0
    8.7300  -18.1481   -0.0003 C   0  0
    7.9768  -19.4010   -0.0002 C   0  0
   10.8091  -16.9188   -0.0001 C   0  0
   12.1407  -16.9430    0.0002 C   0  0
   12.8945  -15.6891    0.0001 C   0  0
   12.2484  -14.5243   -0.0003 C   0  0
   10.7837  -14.4978   -0.0007 C   0  0
   10.0981  -15.6390   -0.0005 C   0  0
   12.9646  -13.3328   -0.0004 O   0  0
    9.6294  -23.6803    0.0002 C   0  0
    9.6595  -25.2151    0.0000 C   0  0
   11.1265  -25.6826    0.0000 C   0  0
   11.1802  -27.2201   -0.0001 C   0  0
    2.6080  -23.1013   -0.0002 H   0  0
    4.5101  -24.8566   -0.0001 H   0  0
    5.6300  -19.9884   -0.0001 H   0  0
    3.1549  -20.7335   -0.0002 H   0  0
   10.6148  -21.5273    0.0006 H   0  0
   11.8524  -19.4596    0.0005 H   0  0
    8.2005  -17.1953   -0.0005 H   0  0
    6.8873  -19.3688   -0.0004 H   0  0
   12.6686  -17.8966    0.0005 H   0  0
   13.9844  -15.7081    0.0003 H   0  0
   10.2555  -13.5443   -0.0010 H   0  0
    9.0082  -15.6206   -0.0008 H   0  0
   13.5691  -13.2871    0.8569 H   0  0
   10.1386  -23.3107   -0.8899 H   0  0
   10.1384  -23.3109    0.8904 H   0  0
    9.1552  -25.5914    0.8901 H   0  0
    9.1553  -25.5912   -0.8902 H   0  0
   11.6278  -25.3025   -0.8900 H   0  0
   11.6278  -25.3027    0.8902 H   0  0
   12.2197  -27.5478   -0.0001 H   0  0
   10.6795  -27.6016   -0.8901 H   0  0
   10.6795  -27.6018    0.8897 H   0  0
 12 13  1  0
  5  3  2  0
 13 14  2  0
  1  2  1  0
 14 15  1  0
 15 10  2  0
  3  4  1  0
  6  7  1  0
 16 17  2  0
  7  8  1  0
 17 18  1  0
  8  9  2  0
 18 19  2  0
  9  5  1  0
 19 20  1  0
  4  1  2  0
 20 21  2  0
 21 16  1  0
 13 16  1  0
  9 10  1  0
 19 22  1  0
  5  6  1  0
  8 23  1  0
 10 11  1  0
 23 24  1  0
  2  6  2  0
 24 25  1  0
 11 12  2  0
 25 26  1  0
  1 27  1  0
  2 28  1  0
  3 29  1  0
  4 30  1  0
 11 31  1  0
 12 32  1  0
 14 33  1  0
 15 34  1  0
 17 35  1  0
 18 36  1  0
 20 37  1  0
 21 38  1  0
 22 39  1  0
 23 40  1  0
 23 41  1  0
 24 42  1  0
 24 43  1  0
 25 44  1  0
 25 45  1  0
 26 46  1  0
 26 47  1  0
 26 48  1  0
M  END
> <Name>
Molecule

> <Clean Energy>
24.9185

> <From>
www.bindingDB.org

> <BindingDB Reactant_set_id>
50154660

> <Ligand InChI>
InChI=1S/C24H22O2/c1-2-3-7-23-24(21-6-4-5-8-22(21)26-23)19-11-9-17(10-12-19)18-13-15-20(25)16-14-18/h4-6,8-16,25H,2-3,7H2,1H3

> <Ligand InChI Key>
JIBMWJCMDPEYQP-UHFFFAOYSA-N

> <BindingDB MonomerID>
50086976

> <BindingDB Ligand Name>
4''-(2-Butyl-benzofuran-3-yl)-biphenyl-4-ol::4'-(2-Butyl-benzofuran-3-yl)-biphenyl-4-ol::4'-(2-butylbenzofuran-3-yl)biphenyl-4-ol::CHEMBL286007

> <Target Name>
Tyrosine-protein phosphatase non-receptor type 1

> <Target Source Organism According to Curator or DataSource>
Homo sapiens

> <IC50 (nM)>
740

> <Curation/DataSource>
ChEMBL

> <Article DOI>
10.1021/jm990560c

> <BindingDB Entry DOI>
10.7270/Q2W958FT

> <PMID>
10753467

> <Authors>
Malamas, MS; Sredy, J; Moxham, C; Katz, A; Xu, W; McDevitt, R; Adebayo, FO; Sawicki, DR; Seestaller, L; Sullivan, D; Taylor, JR

> <Institution>
Wyeth-Ayerst Research

> <Link to Ligand in BindingDB>
http://www.bindingdb.org/bind/chemsearch/marvin/MolStructure.jsp?monomerid=50086976

> <Link to Ligand-Target Pair in BindingDB>
http://www.bindingdb.org/jsp/dbsearch/PrimarySearch_ki.jsp?energyterm=kJ/mole&tag=pol&polymerid=2622&target=Tyrosine-protein+phosphatase+non-receptor+type+1&column=ki&startPg=0&Increment=50&submit=Sea
rch
http://www.bindingdb.org/jsp/dbsearch/PrimarySearch_ki.jsp?energyterm=kJ/mole&tag=r21&monomerid=50086976&enzyme=Tyrosine-protein+phosphatase+non-receptor+type+1&column=ki&startPg=0&Increment=50&submit
=Search

> <PubChem CID of Ligand>
10854796

> <PubChem SID of Ligand>
103986087

> <ChEMBL ID of Ligand>
CHEMBL286007

> <ZINC ID of Ligand>
ZINC13806731

> <Number of Protein Chains in Target (bigger than 1 implies a multichain complex)>
1

> <BindingDB Target Chain Sequence>
MEMEKEFEQIDKSGSWAAIYQDIRHEASDFPCRVAKLPKNKNRNRYRDVSPFDHSRIKLHQEDNDYINASLIKMEEAQRSYILTQGPLPNTCGHFWEMVWEQKSRGVVMLNRVMEKGSLKCAQYWPQKEEKEMIFEDTNLKLTLISEDIKSYYTVRQLELENLTTQETREILHFHYTTWPDFGVPESPASFLNFLFKVRE
SGSLSPEHGPVVVHCSAGIGRSGTFCLADTCLLLMDKRKDPSSVDIKKVLLEMRKFRMGLIQTADQLRFSYLAVIEGAKFIMGDSSVQDQWKELSHEDLEPPPEHIPPPPRPPKRILEPHNGKCREFFPNHQWVKEETQEDKDCPIKEEKGSPLNAAPYGIESMSQDTEVRSRVVGGSLRGAQAASPAKGEPSLPEKDED
HALSYWKPFLVNMCVATVLTAGAYLCYRFLFNSNT

> <PDB ID(s) of Target Chain>
1BZJ,1G7G,1GFY,1JF7,1KAK,1KAV,1LQF,1NL9,1NNY,1NO6,1NZ7,1OEM,1OEO,1OES,1OET,1OEU,1OEV,1ONY,1ONZ,1PH0,1PXH,1PYN,1Q1M,1Q6J,1Q6M,1Q6N,1Q6P,1Q6S,1Q6T,1QXK,1SUG,1T48,1T49,1T4J,1WAX,1XBO,2AZR,2B07,2BGD,2BGE,
2CM2,2CM3,2CM7,2CM8,2CMA,2CMB,2CMC,2CNE,2CNF,2CNG,2CNH,2CNI,2F6T,2F6V,2F6W,2F6Y,2F6Z,2F70,2F71,2FJN,2H4G,2H4K,2HB1,2HNP,2HNQ,2QBP,2QBQ,2QBR,2QBS,2VEU,2VEV,2VEW,2VEX,2VEY,2ZMM,2ZN7,3A5J,3CWE,3D9C,3EAX,
3EB1,3EU0,3I7Z,3I80,3SME,4BJO,4I8N,4QBW,4Y14,5K9V,5K9W,5KA0,5KA1,5T19,6B90,6NTP,6W30,7KEY,7KLX,7LFO,7MN9,7MNA,8DU7,8G65,8G67,8G68,8G69,8G6A,8SKL

> <UniProt (SwissProt) Recommended Name of Target Chain>
Tyrosine-protein phosphatase non-receptor type 1

> <UniProt (SwissProt) Entry Name of Target Chain>
PTN1_HUMAN

> <UniProt (SwissProt) Primary ID of Target Chain>
P18031

> <UniProt (SwissProt) Secondary ID(s) of Target Chain>
Q5TGD8 Q9BQV9 Q9NQQ4

$$$$
Molecule
  SciTegic10242319433D

113118  0  0  0  0            999 V2000
   16.3935    2.2427    0.4963 C   0  0
    5.7524   -1.5020   -0.5148 C   0  0  1  0  0  0
    4.4988   -2.1526   -0.2845 O   0  0
    5.6976   -0.0080   -0.0378 C   0  0
    7.0577    0.7096   -0.4049 C   0  0
    6.8626   -2.2827    0.2310 C   0  0
    8.2393   -1.5148   -0.0528 C   0  0  2  0  0  0
    9.4393   -2.2515    0.6372 C   0  0
   10.8008   -1.6289    0.1517 C   0  0
   10.9253   -0.1428    0.5437 C   0  0  1  0  0  0
   11.0862   -0.0554    2.1144 C   0  0
   12.2403    0.4929   -0.0843 C   0  0  2  0  0  0
   12.2172    0.2834   -1.6434 C   0  0
   13.5423   -0.1672    0.4395 C   0  0
   14.8247    0.4351   -0.2508 C   0  0
   14.9524    2.0036   -0.1721 C   0  0  2  0  0  0
   14.9563    2.7074   -1.5203 C   0  0
   15.1697    4.3447   -1.3411 C   0  0
   14.5516    5.0497   -0.0005 C   0  0
   13.3526    4.2113    0.2668 C   0  0
   13.6438    2.6535    0.5789 C   0  0  1  0  0  0
   12.2967    1.9833    0.2117 C   0  0
   11.1646    2.7175    0.3605 C   0  0
    9.7324    2.1418    0.2919 C   0  0
    9.6516    0.6365   -0.0845 C   0  0  2  0  0  0
    8.2224    0.0438    0.3499 C   0  0  1  0  0  0
    7.9632    0.3561    1.8779 C   0  0
    6.4761   -2.4270    1.7397 C   0  0
    6.9472   -3.7162   -0.3180 C   0  0
   15.4507    5.1723    1.2666 C   0  0
   14.1560    6.4929   -0.3576 C   0  0
   17.5903    1.7363   -0.3834 C   0  0
   18.9459    1.7064    0.4245 C   0  0
   20.1396    1.7132   -0.5891 C   0  0
   21.4891    1.2698    0.0176 C   0  0
   22.6031    1.5434   -0.7304 N   0  0
   21.5260    0.6389    1.0507 O   0  0
   23.9991    1.1093   -0.4486 C   0  0  1  0  0  0
   24.7455    2.1675    0.3781 C   0  0
   24.0927   -0.3526    0.1118 C   0  0
   25.7715    1.7987    1.2541 O   0  0
   24.4964    3.3621    0.2139 O   0  0
   25.4830   -1.0048    0.0783 C   0  0
   25.6330   -2.2144    0.6118 C   0  0
   26.9280   -2.9020    0.5494 C   0  0
   27.9614   -2.3240   -0.0603 C   0  0
   27.8062   -0.9989   -0.6619 C   0  0
   26.6326   -0.3690   -0.5988 C   0  0
   16.4215    1.7165    1.4504 H   0  0
   16.5203    3.3118    0.6666 H   0  0
    5.9668   -1.5215   -1.5833 H   0  0
    4.2766   -2.1322    0.7416 H   0  0
    4.8719    0.5021   -0.5338 H   0  0
    5.5493    0.0240    1.0416 H   0  0
    6.9989    1.7610   -0.1232 H   0  0
    7.2301    0.6296   -1.4782 H   0  0
    8.4135   -1.5628   -1.1277 H   0  0
    9.3570   -2.1417    1.7185 H   0  0
    9.4122   -3.3094    0.3758 H   0  0
   11.6229   -2.1829    0.6047 H   0  0
   10.8596   -1.7132   -0.9335 H   0  0
   11.9710   -0.6130    2.4210 H   0  0
   10.2049   -0.4807    2.5946 H   0  0
   11.1937    0.9878    2.4116 H   0  0
   12.1767   -0.7827   -1.8667 H   0  0
   13.1186    0.7119   -2.0815 H   0  0
   11.3401    0.7756   -2.0637 H   0  0
   13.6118   -0.0046    1.5150 H   0  0
   13.5018   -1.2371    0.2351 H   0  0
   15.7017    0.0006    0.2289 H   0  0
   14.8069    0.1504   -1.3028 H   0  0
   15.7680    2.3074   -2.1279 H   0  0
   14.0045    2.5253   -2.0192 H   0  0
   16.2429    4.5353   -1.3437 H   0  0
   14.7120    4.8289   -2.2038 H   0  0
   12.8334    4.6339    1.1270 H   0  0
   12.7062    4.2622   -0.6094 H   0  0
   13.7881    2.5485    1.6541 H   0  0
   11.2735    3.7869    0.5408 H   0  0
    9.2678    2.2720    1.2693 H   0  0
    9.1750    2.7080   -0.4543 H   0  0
    9.7229    0.5637   -1.1697 H   0  0
    6.9938   -0.0460    2.1721 H   0  0
    7.9715    1.4347    2.0353 H   0  0
    8.7454   -0.1047    2.4812 H   0  0
    6.3992   -1.4382    2.1918 H   0  0
    7.2419   -3.0043    2.2579 H   0  0
    5.5174   -2.9392    1.8223 H   0  0
    7.2150   -3.6862   -1.3741 H   0  0
    5.9810   -4.2076   -0.2026 H   0  0
    7.7054   -4.2727    0.2329 H   0  0
   15.7727    4.1798    1.5816 H   0  0
   14.8842    5.6421    2.0707 H   0  0
   16.3249    5.7808    1.0350 H   0  0
   13.5201    6.4873   -1.2428 H   0  0
   15.0539    7.0769   -0.5595 H   0  0
   13.6132    6.9382    0.4762 H   0  0
   17.3674    0.7287   -0.7343 H   0  0
   17.7049    2.4024   -1.2386 H   0  0
   19.0076    2.5836    1.0684 H   0  0
   18.9887    0.8038    1.0341 H   0  0
   19.8953    1.0377   -1.4089 H   0  0
   20.2547    2.7263   -0.9743 H   0  0
   22.4543    2.1320   -1.6115 H   0  0
   24.5002    1.0855   -1.4163 H   0  0
   23.7599   -0.3326    1.1496 H   0  0
   23.4185   -0.9770   -0.4745 H   0  0
   25.3930    1.1416    1.9804 H   0  0
   24.7870   -2.6987    1.0994 H   0  0
   27.0442   -3.8865    1.0025 H   0  0
   28.9216   -2.8372   -0.1113 H   0  0
   28.6513   -0.5262   -1.1623 H   0  0
   26.5208    0.6179   -1.0480 H   0  0
 16 21  1  0
 21 22  1  0
 12 22  1  0
 22 23  2  0
 23 24  1  0
 25 24  1  0
 10 25  1  0
 25 26  1  0
 26  5  1  0
 26  7  1  0
 26 27  1  0
  2  3  1  0
  6 28  1  0
  2  4  1  0
  6 29  1  0
  4  5  1  0
 19 30  1  0
  2  6  1  0
 19 31  1  0
  7  6  1  0
  1 32  1  0
  7  8  1  0
 32 33  1  0
  8  9  1  0
 33 34  1  0
 10  9  1  0
 34 35  1  0
 10 11  1  0
 35 36  1  0
 10 12  1  0
 35 37  2  0
 12 13  1  0
 38 36  1  0
 12 14  1  0
 38 39  1  0
 14 15  1  0
 38 40  1  0
 16 15  1  0
 16  1  1  0
 39 41  1  0
 39 42  2  0
 16 17  1  0
 40 43  1  0
 17 18  1  0
 43 44  2  0
 18 19  1  0
 44 45  1  0
 19 20  1  0
 45 46  2  0
 21 20  1  0
 46 47  1  0
 47 48  2  0
 48 43  1  0
  1 49  1  0
  1 50  1  0
  2 51  1  0
  3 52  1  0
  4 53  1  0
  4 54  1  0
  5 55  1  0
  5 56  1  0
  7 57  1  0
  8 58  1  0
  8 59  1  0
  9 60  1  0
  9 61  1  0
 11 62  1  0
 11 63  1  0
 11 64  1  0
 13 65  1  0
 13 66  1  0
 13 67  1  0
 14 68  1  0
 14 69  1  0
 15 70  1  0
 15 71  1  0
 17 72  1  0
 17 73  1  0
 18 74  1  0
 18 75  1  0
 20 76  1  0
 20 77  1  0
 21 78  1  0
 23 79  1  0
 24 80  1  0
 24 81  1  0
 25 82  1  0
 27 83  1  0
 27 84  1  0
 27 85  1  0
 28 86  1  0
 28 87  1  0
 28 88  1  0
 29 89  1  0
 29 90  1  0
 29 91  1  0
 30 92  1  0
 30 93  1  0
 30 94  1  0
 31 95  1  0
 31 96  1  0
 31 97  1  0
 32 98  1  0
 32 99  1  0
 33100  1  0
 33101  1  0
 34102  1  0
 34103  1  0
 36104  1  0
 38105  1  0
 40106  1  0
 40107  1  0
 41108  1  0
 44109  1  0
 45110  1  0
 46111  1  0
 47112  1  0
 48113  1  0
M  END
> <Name>
Molecule

> <Clean Energy>
154.795

> <From>
www.bindingDB.org

> <BindingDB Reactant_set_id>
50428386

> <Ligand InChI>
InChI=1S/C43H65NO4/c1-38(2)23-25-43(20-12-11-15-36(46)44-32(37(47)48)27-29-13-9-8-10-14-29)26-24-41(6)30(31(43)28-38)16-17-34-40(5)21-19-35(45)39(3,4)33(40)18-22-42(34,41)7/h8-10,13-14,16,31-35,45H,11
-12,15,17-28H2,1-7H3,(H,44,46)(H,47,48)/t31-,32+,33-,34+,35-,40-,41+,42+,43+/m0/s1

> <Ligand InChI Key>
PDJSMXHHVQKJTF-WLZUWKAKSA-N

> <BindingDB MonomerID>
50246654

> <BindingDB Ligand Name>
(R)-2-(5-((4aR,6aS,6bR,8aR,10S,12aR,12bR,14bR)-10-hydroxy-2,2,6a,6b,9,9,12a-heptamethyl-1,2,3,4,4a,5,6,6a,6b,7,8,8a,9,10,11,12,12a,12b,13,14b-icosahydropicen-4a-yl)pentanamido)-3-phenylpropanoic acid:
:CHEMBL503669

> <Target Name>
Tyrosine-protein phosphatase non-receptor type 1

> <Target Source Organism According to Curator or DataSource>
Homo sapiens

> <IC50 (nM)>
740

> <Curation/DataSource>
ChEMBL

> <Article DOI>
10.1016/j.bmc.2008.07.080

> <BindingDB Entry DOI>
10.7270/Q2HX1CH7

> <PMID>
18707891

> <Authors>
Zhang, YN; Zhang, W; Hong, D; Shi, L; Shen, Q; Li, JY; Li, J; Hu, LH

> <Institution>
Chinese Academy of Sciences

> <Link to Ligand in BindingDB>
http://www.bindingdb.org/bind/chemsearch/marvin/MolStructure.jsp?monomerid=50246654

> <Link to Ligand-Target Pair in BindingDB>
http://www.bindingdb.org/jsp/dbsearch/PrimarySearch_ki.jsp?energyterm=kJ/mole&tag=pol&polymerid=2622&target=Tyrosine-protein+phosphatase+non-receptor+type+1&column=ki&startPg=0&Increment=50&submit=Sea
rch
http://www.bindingdb.org/jsp/dbsearch/PrimarySearch_ki.jsp?energyterm=kJ/mole&tag=r21&monomerid=50246654&enzyme=Tyrosine-protein+phosphatase+non-receptor+type+1&column=ki&startPg=0&Increment=50&submit
=Search

> <PubChem CID of Ligand>
44563373

> <PubChem SID of Ligand>
104102036

> <ChEMBL ID of Ligand>
CHEMBL503669

> <ZINC ID of Ligand>
ZINC49898159

> <Number of Protein Chains in Target (bigger than 1 implies a multichain complex)>
1

> <BindingDB Target Chain Sequence>
MEMEKEFEQIDKSGSWAAIYQDIRHEASDFPCRVAKLPKNKNRNRYRDVSPFDHSRIKLHQEDNDYINASLIKMEEAQRSYILTQGPLPNTCGHFWEMVWEQKSRGVVMLNRVMEKGSLKCAQYWPQKEEKEMIFEDTNLKLTLISEDIKSYYTVRQLELENLTTQETREILHFHYTTWPDFGVPESPASFLNFLFKVRE
SGSLSPEHGPVVVHCSAGIGRSGTFCLADTCLLLMDKRKDPSSVDIKKVLLEMRKFRMGLIQTADQLRFSYLAVIEGAKFIMGDSSVQDQWKELSHEDLEPPPEHIPPPPRPPKRILEPHNGKCREFFPNHQWVKEETQEDKDCPIKEEKGSPLNAAPYGIESMSQDTEVRSRVVGGSLRGAQAASPAKGEPSLPEKDED
HALSYWKPFLVNMCVATVLTAGAYLCYRFLFNSNT

> <PDB ID(s) of Target Chain>
1BZJ,1G7G,1GFY,1JF7,1KAK,1KAV,1LQF,1NL9,1NNY,1NO6,1NZ7,1OEM,1OEO,1OES,1OET,1OEU,1OEV,1ONY,1ONZ,1PH0,1PXH,1PYN,1Q1M,1Q6J,1Q6M,1Q6N,1Q6P,1Q6S,1Q6T,1QXK,1SUG,1T48,1T49,1T4J,1WAX,1XBO,2AZR,2B07,2BGD,2BGE,
2CM2,2CM3,2CM7,2CM8,2CMA,2CMB,2CMC,2CNE,2CNF,2CNG,2CNH,2CNI,2F6T,2F6V,2F6W,2F6Y,2F6Z,2F70,2F71,2FJN,2H4G,2H4K,2HB1,2HNP,2HNQ,2QBP,2QBQ,2QBR,2QBS,2VEU,2VEV,2VEW,2VEX,2VEY,2ZMM,2ZN7,3A5J,3CWE,3D9C,3EAX,
3EB1,3EU0,3I7Z,3I80,3SME,4BJO,4I8N,4QBW,4Y14,5K9V,5K9W,5KA0,5KA1,5T19,6B90,6NTP,6W30,7KEY,7KLX,7LFO,7MN9,7MNA,8DU7,8G65,8G67,8G68,8G69,8G6A,8SKL

> <UniProt (SwissProt) Recommended Name of Target Chain>
Tyrosine-protein phosphatase non-receptor type 1

> <UniProt (SwissProt) Entry Name of Target Chain>
PTN1_HUMAN

> <UniProt (SwissProt) Primary ID of Target Chain>
P18031

> <UniProt (SwissProt) Secondary ID(s) of Target Chain>
Q5TGD8 Q9BQV9 Q9NQQ4

$$$$
Molecule
  SciTegic10242319433D

 88 92  0  0  0  0            999 V2000
   12.4053  -14.9546   -0.2600 C   0  0  1  0  0  0
   12.5944  -16.4741    0.2502 C   0  0  1  0  0  0
   11.2475  -17.2842   -0.2194 C   0  0  2  0  0  0
    9.9613  -16.4891    0.3862 C   0  0  1  0  0  0
   10.0547  -15.1195   -0.1502 C   0  0
   11.2320  -14.4929    0.3314 O   0  0
   13.5254  -12.5546    0.1222 C   0  0
   12.3377  -11.5742   -0.0367 C   0  0
   11.0278  -11.9886   -0.1631 C   0  0
    9.9640  -11.1156   -0.2196 C   0  0
   10.1859   -9.7515   -0.1563 C   0  0
   11.5052   -9.2795   -0.0390 C   0  0
   12.5574  -10.2010    0.0254 C   0  0
   14.6147  -12.0230    0.3699 O   0  0
   13.5283  -14.0659    0.1426 O   0  0
   11.8919   -7.8874    0.0363 O   0  0
   10.8579   -6.8921   -0.0180 C   0  0
    9.0484   -8.9447   -0.2117 O   0  0
    8.2005  -11.8096   -0.3584 Br  0  0
   15.1561  -16.5679    0.1167 C   0  0
   16.4634  -17.2764   -0.0334 C   0  0
   16.5219  -18.6497   -0.2241 C   0  0
   17.7597  -19.2817   -0.2751 C   0  0
   18.9468  -18.5617   -0.1550 C   0  0
   18.8999  -17.1715    0.0240 C   0  0
   17.6481  -16.5575    0.0953 C   0  0
   15.2202  -15.4545    0.6342 O   0  0
   13.8557  -17.1918   -0.2282 O   0  0
   20.0500  -16.2833    0.1551 O   0  0
   21.3717  -16.8500    0.0828 C   0  0
   20.1353  -19.2993   -0.2186 O   0  0
   17.8421  -21.1665   -0.4894 Br  0  0
   10.1893  -19.5245   -0.2151 C   0  0
   10.1383  -20.9621   -0.0378 C   0  0
   11.2846  -21.7066    0.1914 C   0  0
   11.1828  -23.0894    0.2762 C   0  0
    9.9519  -23.7330    0.1581 C   0  0
    8.7877  -22.9791   -0.0551 C   0  0
    8.9116  -21.5978   -0.1649 C   0  0
    9.2271  -19.0430   -0.8086 O   0  0
   11.3255  -18.7148    0.1981 O   0  0
    7.4350  -23.4936   -0.1850 O   0  0
    7.2269  -24.9081   -0.0712 C   0  0
    9.9635  -25.1254    0.2584 O   0  0
   12.7522  -24.1241    0.5347 Br  0  0
    7.4161  -16.3329    0.2838 C   0  0
    6.0973  -17.0032    0.1049 C   0  0
    6.0373  -18.3767   -0.0839 C   0  0
    4.8032  -19.0058   -0.1890 C   0  0
    3.6177  -18.2787   -0.1208 C   0  0
    3.6659  -16.8866    0.0573 C   0  0
    4.9147  -16.2740    0.1773 C   0  0
    7.4185  -15.1630    0.6876 O   0  0
    8.6433  -17.0795    0.0152 O   0  0
    2.5170  -15.9951    0.1403 O   0  0
    1.1979  -16.5576    0.0247 C   0  0
    2.4297  -19.0113   -0.2342 O   0  0
    4.7271  -20.8920   -0.4103 Br  0  0
   12.2988  -14.9425   -1.3448 H   0  0
   12.6119  -16.4600    1.3400 H   0  0
   11.1896  -17.2487   -1.3073 H   0  0
   10.0432  -16.4532    1.4725 H   0  0
   10.0857  -15.1591   -1.2390 H   0  0
    9.1839  -14.5465    0.1684 H   0  0
   10.8251  -13.0580   -0.2210 H   0  0
   13.5781   -9.8325    0.1272 H   0  0
   11.3039   -5.9000    0.0498 H   0  0
   10.1688   -7.0377    0.8139 H   0  0
   10.3151   -6.9824   -0.9590 H   0  0
    8.5409   -9.1160   -1.1149 H   0  0
   15.6048  -19.2287   -0.3331 H   0  0
   17.5970  -15.4808    0.2569 H   0  0
   22.1133  -16.0596    0.1979 H   0  0
   21.5068  -17.3363   -0.8834 H   0  0
   21.4971  -17.5838    0.8790 H   0  0
   20.1503  -20.0071    0.5569 H   0  0
   12.2509  -21.2149    0.3033 H   0  0
    8.0212  -20.9989   -0.3558 H   0  0
    6.1667  -25.1307   -0.1911 H   0  0
    7.5601  -25.2472    0.9097 H   0  0
    7.7955  -25.4230   -0.8456 H   0  0
   10.5697  -25.5264   -0.4994 H   0  0
    6.9557  -18.9601   -0.1496 H   0  0
    4.9645  -15.1961    0.3318 H   0  0
    0.4553  -15.7640    0.1073 H   0  0
    1.0414  -17.2851    0.8212 H   0  0
    1.0960  -17.0506   -0.9422 H   0  0
    2.4101  -19.5061   -1.1601 H   0  0
  2  1  1  0
  2  3  1  0
  3  4  1  0
  4  5  1  0
  5  6  1  0
  1  6  1  0
  7  8  1  0
  8  9  4  0
  9 10  4  0
 10 11  4  0
 11 12  4  0
 12 13  4  0
  8 13  4  0
  7 14  2  0
  7 15  1  0
 16 17  1  0
 12 16  1  0
 11 18  1  0
 10 19  1  0
  1 15  1  0
 20 21  1  0
 21 22  4  0
 22 23  4  0
 23 24  4  0
 24 25  4  0
 25 26  4  0
 21 26  4  0
 20 27  2  0
 20 28  1  0
 29 30  1  0
 25 29  1  0
 24 31  1  0
 23 32  1  0
  2 28  1  0
 33 34  1  0
 34 35  4  0
 35 36  4  0
 36 37  4  0
 37 38  4  0
 38 39  4  0
 34 39  4  0
 33 40  2  0
 33 41  1  0
 42 43  1  0
 38 42  1  0
 37 44  1  0
 36 45  1  0
  3 41  1  0
 46 47  1  0
 47 48  4  0
 48 49  4  0
 49 50  4  0
 50 51  4  0
 51 52  4  0
 47 52  4  0
 46 53  2  0
 46 54  1  0
 55 56  1  0
 51 55  1  0
 50 57  1  0
 49 58  1  0
  4 54  1  0
  1 59  1  0
  2 60  1  0
  3 61  1  0
  4 62  1  0
  5 63  1  0
  5 64  1  0
  9 65  1  0
 13 66  1  0
 17 67  1  0
 17 68  1  0
 17 69  1  0
 18 70  1  0
 22 71  1  0
 26 72  1  0
 30 73  1  0
 30 74  1  0
 30 75  1  0
 31 76  1  0
 35 77  1  0
 39 78  1  0
 43 79  1  0
 43 80  1  0
 43 81  1  0
 44 82  1  0
 48 83  1  0
 52 84  1  0
 56 85  1  0
 56 86  1  0
 56 87  1  0
 57 88  1  0
M  END
> <Name>
Molecule

> <Clean Energy>
65.0912

> <From>
www.bindingDB.org

> <BindingDB Reactant_set_id>
50760333

> <Ligand InChI>
InChI=1S/C37H30Br4O17/c1-50-22-9-14(5-18(38)27(22)42)33(46)55-26-13-54-37(58-36(49)17-8-21(41)30(45)25(12-17)53-4)32(57-35(48)16-7-20(40)29(44)24(11-16)52-3)31(26)56-34(47)15-6-19(39)28(43)23(10-15)51
-2/h5-12,26,31-32,37,42-45H,13H2,1-4H3/t26-,31+,32-,37+/m1/s1

> <Ligand InChI Key>
LVTCDESFWUMBOB-PWSFCJRZSA-N

> <BindingDB MonomerID>
50241909

> <BindingDB Ligand Name>
CHEMBL4086351

> <Target Name>
Tyrosine-protein phosphatase non-receptor type 1

> <Target Source Organism According to Curator or DataSource>
Homo sapiens

> <IC50 (nM)>
750

> <Curation/DataSource>
ChEMBL

> <Article DOI>
10.1016/j.ejmech.2017.04.004

> <BindingDB Entry DOI>
10.7270/Q2WD42QK

> <PMID>
28395151

> <Authors>
Zhang, R; Yu, R; Xu, Q; Li, X; Luo, J; Jiang, B; Wang, L; Guo, S; Wu, N; Shi, D

> <Institution>
Chinese Academy of Sciences

> <Link to Ligand in BindingDB>
http://www.bindingdb.org/bind/chemsearch/marvin/MolStructure.jsp?monomerid=50241909

> <Link to Ligand-Target Pair in BindingDB>
http://www.bindingdb.org/jsp/dbsearch/PrimarySearch_ki.jsp?energyterm=kJ/mole&tag=pol&polymerid=2622&target=Tyrosine-protein+phosphatase+non-receptor+type+1&column=ki&startPg=0&Increment=50&submit=Sea
rch
http://www.bindingdb.org/jsp/dbsearch/PrimarySearch_ki.jsp?energyterm=kJ/mole&tag=r21&monomerid=50241909&enzyme=Tyrosine-protein+phosphatase+non-receptor+type+1&column=ki&startPg=0&Increment=50&submit
=Search

> <PubChem CID of Ligand>
137642893

> <PubChem SID of Ligand>
386402186

> <ChEMBL ID of Ligand>
CHEMBL4086351

> <Number of Protein Chains in Target (bigger than 1 implies a multichain complex)>
1

> <BindingDB Target Chain Sequence>
MEMEKEFEQIDKSGSWAAIYQDIRHEASDFPCRVAKLPKNKNRNRYRDVSPFDHSRIKLHQEDNDYINASLIKMEEAQRSYILTQGPLPNTCGHFWEMVWEQKSRGVVMLNRVMEKGSLKCAQYWPQKEEKEMIFEDTNLKLTLISEDIKSYYTVRQLELENLTTQETREILHFHYTTWPDFGVPESPASFLNFLFKVRE
SGSLSPEHGPVVVHCSAGIGRSGTFCLADTCLLLMDKRKDPSSVDIKKVLLEMRKFRMGLIQTADQLRFSYLAVIEGAKFIMGDSSVQDQWKELSHEDLEPPPEHIPPPPRPPKRILEPHNGKCREFFPNHQWVKEETQEDKDCPIKEEKGSPLNAAPYGIESMSQDTEVRSRVVGGSLRGAQAASPAKGEPSLPEKDED
HALSYWKPFLVNMCVATVLTAGAYLCYRFLFNSNT

> <PDB ID(s) of Target Chain>
1BZJ,1G7G,1GFY,1JF7,1KAK,1KAV,1LQF,1NL9,1NNY,1NO6,1NZ7,1OEM,1OEO,1OES,1OET,1OEU,1OEV,1ONY,1ONZ,1PH0,1PXH,1PYN,1Q1M,1Q6J,1Q6M,1Q6N,1Q6P,1Q6S,1Q6T,1QXK,1SUG,1T48,1T49,1T4J,1WAX,1XBO,2AZR,2B07,2BGD,2BGE,
2CM2,2CM3,2CM7,2CM8,2CMA,2CMB,2CMC,2CNE,2CNF,2CNG,2CNH,2CNI,2F6T,2F6V,2F6W,2F6Y,2F6Z,2F70,2F71,2FJN,2H4G,2H4K,2HB1,2HNP,2HNQ,2QBP,2QBQ,2QBR,2QBS,2VEU,2VEV,2VEW,2VEX,2VEY,2ZMM,2ZN7,3A5J,3CWE,3D9C,3EAX,
3EB1,3EU0,3I7Z,3I80,3SME,4BJO,4I8N,4QBW,4Y14,5K9V,5K9W,5KA0,5KA1,5T19,6B90,6NTP,6W30,7KEY,7KLX,7LFO,7MN9,7MNA,8DU7,8G65,8G67,8G68,8G69,8G6A,8SKL

> <UniProt (SwissProt) Recommended Name of Target Chain>
Tyrosine-protein phosphatase non-receptor type 1

> <UniProt (SwissProt) Entry Name of Target Chain>
PTN1_HUMAN

> <UniProt (SwissProt) Primary ID of Target Chain>
P18031

> <UniProt (SwissProt) Secondary ID(s) of Target Chain>
Q5TGD8 Q9BQV9 Q9NQQ4

$$$$
Molecule
  SciTegic10242319433D

102106  0  0  0  0            999 V2000
   23.1754  -23.3048   -1.3650 O   0  0
   22.7516  -23.9857   -0.0771 S   0  0
   23.2638  -23.1545    1.0844 O   0  0
   -2.1162  -23.2736   -1.0288 O   0  0
   -1.5778  -24.1610    0.0781 S   0  0
   -1.9921  -23.5537    1.4054 O   0  0
    9.9413  -22.5728   -0.0090 C   0  0
   11.3401  -22.5648    0.0012 C   0  0
   12.0757  -21.3728    0.0059 C   0  0
   11.3667  -20.1601    0.0006 C   0  0
    9.9519  -20.1868   -0.0083 C   0  0
    9.2179  -21.3802   -0.0139 C   0  0
    7.5768  -21.3734   -0.0235 C   0  0
    6.9004  -22.7398   -0.0862 O   0  0
    5.3761  -22.7978   -0.0651 C   0  0
   13.6978  -21.4369    0.0156 C   0  0
   14.3242  -22.7914    0.0585 O   0  0
   15.8233  -22.8076    0.0419 C   0  0
    4.5684  -21.6626    0.0149 C   0  0
    3.1714  -21.7750    0.0392 C   0  0
    2.5309  -23.0149   -0.0162 C   0  0
    3.3315  -24.1516   -0.0993 C   0  0
    4.7279  -24.0370   -0.1230 C   0  0
   16.5058  -24.0263    0.0785 C   0  0
   17.9033  -24.0884    0.0584 C   0  0
   18.6602  -22.9213    0.0011 C   0  0
   17.9841  -21.7012   -0.0334 C   0  0
   16.5861  -21.6408   -0.0131 C   0  0
   12.0971  -18.7737    0.0036 C   0  0
   13.3306  -18.7315    0.0079 O   0  0
    0.9844  -23.0882    0.0290 C   0  0
    0.2560  -24.2253   -0.0106 C   0  0
   -2.3177  -25.7095   -0.0519 O   0  0
   -3.7572  -25.5564    0.0615 C   0  0
   -4.4673  -26.9279   -0.0288 C   0  0
   20.1917  -22.9485   -0.0340 C   0  0
   20.9305  -24.0748   -0.0135 C   0  0
   23.4897  -25.5345   -0.0146 O   0  0
   24.9268  -25.3767   -0.0899 C   0  0
   25.6291  -26.7530   -0.0480 C   0  0
   11.4111  -17.5990    0.0003 N   0  0
   12.0441  -16.2523   -0.0001 C   0  0
   13.4266  -16.0700   -0.0029 C   0  0
   13.9871  -14.7949   -0.0055 C   0  0
   13.1907  -13.6530   -0.0053 C   0  0
   11.8081  -13.8354   -0.0014 C   0  0
   11.2442  -15.1127    0.0008 C   0  0
   13.8922  -12.3495   -0.0090 O   0  0
   13.2350  -11.0336   -0.0048 C   0  0
   14.0616   -9.9107   -0.0021 C   0  0
   13.5322   -8.6231    0.0130 C   0  0
   12.1549   -8.4384    0.0245 C   0  0
   11.3190   -9.5481    0.0167 C   0  0
   11.8565  -10.8313    0.0019 C   0  0
   11.5647   -7.0468    0.0668 C   0  0
   12.4841   -5.8142   -0.0475 C   0  0
   10.0377   -6.8641   -0.0446 C   0  0
    9.4093  -23.5242   -0.0133 H   0  0
   11.8739  -23.5151    0.0056 H   0  0
    9.4111  -19.2404   -0.0110 H   0  0
    7.2406  -20.8770    0.8868 H   0  0
    7.2513  -20.8006   -0.8918 H   0  0
   14.0514  -20.9401   -0.8879 H   0  0
   14.0429  -20.8877    0.8916 H   0  0
    5.0298  -20.6760    0.0591 H   0  0
    2.5681  -20.8694    0.1030 H   0  0
    2.8685  -25.1373   -0.1461 H   0  0
    5.3296  -24.9435   -0.1889 H   0  0
   15.9341  -24.9533    0.1240 H   0  0
   18.4027  -25.0569    0.0877 H   0  0
   18.5572  -20.7750   -0.0770 H   0  0
   16.0879  -20.6717   -0.0406 H   0  0
    0.4399  -22.1464    0.0983 H   0  0
    0.7601  -25.1879   -0.0959 H   0  0
   -3.9923  -25.0954    1.0209 H   0  0
   -4.1126  -24.9167   -0.7463 H   0  0
   -5.5445  -26.7864    0.0588 H   0  0
   -4.1192  -27.5718    0.7788 H   0  0
   -4.2393  -27.3932   -0.9879 H   0  0
   20.7175  -21.9948   -0.0785 H   0  0
   20.4372  -25.0453    0.0416 H   0  0
   25.1831  -24.8723   -1.0215 H   0  0
   25.2657  -24.7761    0.7542 H   0  0
   26.7084  -26.6126   -0.1058 H   0  0
   25.2961  -27.3572   -0.8920 H   0  0
   25.3786  -27.2611    0.8833 H   0  0
   10.3422  -17.6466   -0.0022 H   0  0
   14.0810  -16.9417   -0.0030 H   0  0
   15.0720  -14.6889   -0.0077 H   0  0
   11.1544  -12.9632   -0.0001 H   0  0
   10.1594  -15.2195    0.0033 H   0  0
   15.1435  -10.0436   -0.0120 H   0  0
   14.1979   -7.7600    0.0159 H   0  0
   10.2375   -9.4128    0.0223 H   0  0
   11.1883  -11.6924   -0.0047 H   0  0
   11.5528   -7.0161    1.1563 H   0  0
   11.8833   -4.9062    0.0028 H   0  0
   13.0168   -5.8446   -0.9980 H   0  0
   13.2031   -5.8194    0.7718 H   0  0
    9.7937   -5.8030    0.0043 H   0  0
    9.5478   -7.3873    0.7766 H   0  0
    9.6907   -7.2728   -0.9937 H   0  0
  2  1  2  0
  3  2  2  0
  5  4  2  0
  6  5  2  0
  7  8  4  0
  8  9  4  0
  9 10  4  0
 10 11  4  0
 11 12  4  0
 12  7  4  0
 12 13  1  0
 13 14  1  0
 14 15  1  0
  9 16  1  0
 16 17  1  0
 17 18  1  0
 15 19  4  0
 19 20  4  0
 20 21  4  0
 21 22  4  0
 22 23  4  0
 23 15  4  0
 18 24  4  0
 24 25  4  0
 25 26  4  0
 26 27  4  0
 27 28  4  0
 28 18  4  0
 10 29  1  0
 29 30  2  0
 21 31  1  0
 31 32  2  0
 32  5  1  0
  5 33  1  0
 33 34  1  0
 34 35  1  0
 26 36  1  0
 36 37  2  0
 37  2  1  0
  2 38  1  0
 38 39  1  0
 39 40  1  0
 29 41  1  0
 41 42  1  0
 42 43  4  0
 43 44  4  0
 44 45  4  0
 45 46  4  0
 46 47  4  0
 47 42  4  0
 45 48  1  0
 48 49  1  0
 49 50  4  0
 50 51  4  0
 51 52  4  0
 52 53  4  0
 53 54  4  0
 54 49  4  0
 52 55  1  0
 55 56  1  0
 55 57  1  0
  7 58  1  0
  8 59  1  0
 11 60  1  0
 13 61  1  0
 13 62  1  0
 16 63  1  0
 16 64  1  0
 19 65  1  0
 20 66  1  0
 22 67  1  0
 23 68  1  0
 24 69  1  0
 25 70  1  0
 27 71  1  0
 28 72  1  0
 31 73  1  0
 32 74  1  0
 34 75  1  0
 34 76  1  0
 35 77  1  0
 35 78  1  0
 35 79  1  0
 36 80  1  0
 37 81  1  0
 39 82  1  0
 39 83  1  0
 40 84  1  0
 40 85  1  0
 40 86  1  0
 41 87  1  0
 43 88  1  0
 44 89  1  0
 46 90  1  0
 47 91  1  0
 50 92  1  0
 51 93  1  0
 53 94  1  0
 54 95  1  0
 55 96  1  0
 56 97  1  0
 56 98  1  0
 56 99  1  0
 57100  1  0
 57101  1  0
 57102  1  0
M  END
> <Name>
Molecule

> <Clean Energy>
38.5511

> <From>
www.bindingDB.org

> <BindingDB Reactant_set_id>
50808727

> <Ligand InChI>
InChI=1S/C44H45NO10S2/c1-5-53-56(47,48)27-25-33-8-17-39(18-9-33)51-30-35-7-12-37(31-52-40-19-10-34(11-20-40)26-28-57(49,50)54-6-2)43(29-35)44(46)45-38-15-23-42(24-16-38)55-41-21-13-36(14-22-41)32(3)4/
h7-29,32H,5-6,30-31H2,1-4H3,(H,45,46)/b27-25+,28-26+

> <Ligand InChI Key>
IRNDAQRTKSXVBJ-NBHCHVEOSA-N

> <BindingDB MonomerID>
50256829

> <BindingDB Ligand Name>
CHEMBL4076737

> <Target Name>
Tyrosine-protein phosphatase non-receptor type 1

> <Target Source Organism According to Curator or DataSource>
Homo sapiens

> <IC50 (nM)>
750

> <Curation/DataSource>
ChEMBL

> <Article DOI>
10.1016/j.bmcl.2017.03.060

> <BindingDB Entry DOI>
10.7270/Q2FR0024

> <PMID>
28372909

> <Authors>
Yang, F; Xie, F; Zhang, Y; Xia, Y; Liu, W; Jiang, F; Lam, C; Qiao, Y; Xie, D; Li, J; Fu, L

> <Institution>
Shanghai Jiao Tong University

> <Link to Ligand in BindingDB>
http://www.bindingdb.org/bind/chemsearch/marvin/MolStructure.jsp?monomerid=50256829

> <Link to Ligand-Target Pair in BindingDB>
http://www.bindingdb.org/jsp/dbsearch/PrimarySearch_ki.jsp?energyterm=kJ/mole&tag=pol&polymerid=2622&target=Tyrosine-protein+phosphatase+non-receptor+type+1&column=ki&startPg=0&Increment=50&submit=Sea
rch
http://www.bindingdb.org/jsp/dbsearch/PrimarySearch_ki.jsp?energyterm=kJ/mole&tag=r21&monomerid=50256829&enzyme=Tyrosine-protein+phosphatase+non-receptor+type+1&column=ki&startPg=0&Increment=50&submit
=Search

> <PubChem CID of Ligand>
137650470

> <PubChem SID of Ligand>
402360893

> <Number of Protein Chains in Target (bigger than 1 implies a multichain complex)>
1

> <BindingDB Target Chain Sequence>
MEMEKEFEQIDKSGSWAAIYQDIRHEASDFPCRVAKLPKNKNRNRYRDVSPFDHSRIKLHQEDNDYINASLIKMEEAQRSYILTQGPLPNTCGHFWEMVWEQKSRGVVMLNRVMEKGSLKCAQYWPQKEEKEMIFEDTNLKLTLISEDIKSYYTVRQLELENLTTQETREILHFHYTTWPDFGVPESPASFLNFLFKVRE
SGSLSPEHGPVVVHCSAGIGRSGTFCLADTCLLLMDKRKDPSSVDIKKVLLEMRKFRMGLIQTADQLRFSYLAVIEGAKFIMGDSSVQDQWKELSHEDLEPPPEHIPPPPRPPKRILEPHNGKCREFFPNHQWVKEETQEDKDCPIKEEKGSPLNAAPYGIESMSQDTEVRSRVVGGSLRGAQAASPAKGEPSLPEKDED
HALSYWKPFLVNMCVATVLTAGAYLCYRFLFNSNT

> <PDB ID(s) of Target Chain>
1BZJ,1G7G,1GFY,1JF7,1KAK,1KAV,1LQF,1NL9,1NNY,1NO6,1NZ7,1OEM,1OEO,1OES,1OET,1OEU,1OEV,1ONY,1ONZ,1PH0,1PXH,1PYN,1Q1M,1Q6J,1Q6M,1Q6N,1Q6P,1Q6S,1Q6T,1QXK,1SUG,1T48,1T49,1T4J,1WAX,1XBO,2AZR,2B07,2BGD,2BGE,
2CM2,2CM3,2CM7,2CM8,2CMA,2CMB,2CMC,2CNE,2CNF,2CNG,2CNH,2CNI,2F6T,2F6V,2F6W,2F6Y,2F6Z,2F70,2F71,2FJN,2H4G,2H4K,2HB1,2HNP,2HNQ,2QBP,2QBQ,2QBR,2QBS,2VEU,2VEV,2VEW,2VEX,2VEY,2ZMM,2ZN7,3A5J,3CWE,3D9C,3EAX,
3EB1,3EU0,3I7Z,3I80,3SME,4BJO,4I8N,4QBW,4Y14,5K9V,5K9W,5KA0,5KA1,5T19,6B90,6NTP,6W30,7KEY,7KLX,7LFO,7MN9,7MNA,8DU7,8G65,8G67,8G68,8G69,8G6A,8SKL

> <UniProt (SwissProt) Recommended Name of Target Chain>
Tyrosine-protein phosphatase non-receptor type 1

> <UniProt (SwissProt) Entry Name of Target Chain>
PTN1_HUMAN

> <UniProt (SwissProt) Primary ID of Target Chain>
P18031

> <UniProt (SwissProt) Secondary ID(s) of Target Chain>
Q5TGD8 Q9BQV9 Q9NQQ4

$$$$
Molecule
  SciTegic10242319433D

 56 57  0  0  0  0            999 V2000
    1.0611   -0.7006   -0.0186 C   0  0
    1.1210    0.6268    0.0045 C   0  0
   -0.1265    1.4016   -0.0119 C   0  0
   -1.3136    0.7772   -0.0357 C   0  0
   -1.3713   -0.6933   -0.0478 C   0  0
   -0.2341   -1.3935   -0.0415 C   0  0
   -0.2796   -2.7968   -0.0494 O   0  0
    1.0507   -3.3455   -0.0323 C   0  0
   -0.0369    2.8031   -0.0058 O   0  0
   -1.3243    3.4249   -0.0327 C   0  0
   -2.6975   -1.4497   -0.0604 C   0  0
   -3.9006   -0.6223   -0.0365 N   0  0
   -5.1472   -1.3094   -0.0093 C   0  0
   -6.4036   -0.6487   -0.0012 N   0  0
   -5.1369   -2.5453   -0.0034 O   0  0
    2.3652    1.3334    0.0507 N   0  0
    3.9567    0.6219    0.0515 S   0  0
    4.1146   -0.8312    1.1379 C   0  0
    4.9368    1.6689    0.5470 O   0  0
    4.3398    0.2385   -1.3654 O   0  0
    0.9843   -4.8821   -0.0166 C   0  0
   -1.1416    4.9540   -0.0429 C   0  0
   -7.5879   -1.4987    0.0117 C   0  0
   -8.9109   -0.7551    0.0061 C   0  0
  -10.0447   -1.4595    0.0062 C   0  0
  -11.3434   -0.7805    0.0011 C   0  0
  -11.3950    0.5495   -0.0034 C   0  0
  -10.1499    1.3294   -0.0034 C   0  0
   -8.9670    0.7101    0.0010 C   0  0
    1.9833   -1.2816   -0.0206 H   0  0
   -2.2353    1.3589   -0.0462 H   0  0
    1.5885   -3.0163   -0.9214 H   0  0
    1.5733   -2.9976    0.8587 H   0  0
   -1.8611    3.1150   -0.9293 H   0  0
   -1.8909    3.1305    0.8507 H   0  0
   -2.7274   -2.0572   -0.9649 H   0  0
   -2.7206   -2.0988    0.8149 H   0  0
   -3.8478    0.4464   -0.0392 H   0  0
   -6.4776    0.4187   -0.0044 H   0  0
    2.3133    2.4015    0.0885 H   0  0
    5.1326   -1.2170    1.0839 H   0  0
    3.4163   -1.6038    0.8160 H   0  0
    3.8896   -0.5438    2.1650 H   0  0
    1.9950   -5.2899   -0.0037 H   0  0
    0.4629   -5.2328   -0.9073 H   0  0
    0.4478   -5.2141    0.8723 H   0  0
   -2.1184    5.4370   -0.0635 H   0  0
   -0.5735    5.2467   -0.9260 H   0  0
   -0.6033    5.2621    0.8534 H   0  0
   -7.5553   -2.1372   -0.8711 H   0  0
   -7.5510   -2.1163    0.9091 H   0  0
  -10.0042   -2.5487    0.0101 H   0  0
  -12.2647   -1.3631    0.0009 H   0  0
  -12.3586    1.0589   -0.0071 H   0  0
  -10.1920    2.4186   -0.0070 H   0  0
   -8.0454    1.2922    0.0007 H   0  0
  1  2  2  0
  2  3  1  0
  3  4  2  0
  4  5  1  0
  5  6  2  0
  6  1  1  0
  7  8  1  0
  6  7  1  0
  9 10  1  0
  3  9  1  0
  5 11  1  0
 11 12  1  0
 12 13  1  0
 13 14  1  0
 13 15  2  0
  2 16  1  0
 16 17  1  0
 17 18  1  0
 17 19  2  0
 17 20  2  0
  8 21  1  0
 10 22  1  0
 14 23  1  0
 23 24  1  0
 24 25  2  0
 25 26  1  0
 26 27  2  0
 27 28  1  0
 28 29  2  0
 29 24  1  0
  1 30  1  0
  4 31  1  0
  8 32  1  0
  8 33  1  0
 10 34  1  0
 10 35  1  0
 11 36  1  0
 11 37  1  0
 12 38  1  0
 14 39  1  0
 16 40  1  0
 18 41  1  0
 18 42  1  0
 18 43  1  0
 21 44  1  0
 21 45  1  0
 21 46  1  0
 22 47  1  0
 22 48  1  0
 22 49  1  0
 23 50  1  0
 23 51  1  0
 25 52  1  0
 26 53  1  0
 27 54  1  0
 28 55  1  0
 29 56  1  0
M  END
> <Name>
Molecule

> <Clean Energy>
2.40417

> <From>
www.bindingDB.org

> <BindingDB Reactant_set_id>
50358312

> <Ligand InChI>
InChI=1S/C35H51N5O7/c1-5-22(3)32-31(43)21-39-18-12-11-16-28(39)35(46)36-25(14-8-10-17-30(42)29(41)6-2)33(44)37-26(34(45)38-32)19-23-20-40(47-4)27-15-9-7-13-24(23)27/h7,9,13,15,20,22,25-26,28,30,32,42H
,5-6,8,10-12,14,16-19,21H2,1-4H3,(H,36,46)(H,37,44)(H,38,45)/t22?,25-,26-,28+,30?,32-/m0/s1

> <Ligand InChI Key>
FRMWLSDAQDAEBY-SYEJVXLUSA-N

> <BindingDB MonomerID>
50096224

> <BindingDB Ligand Name>
CHEMBL3593822

> <Target Name>
Tyrosine-protein phosphatase non-receptor type 1

> <Target Source Organism According to Curator or DataSource>
Homo sapiens

> <IC50 (nM)>
756

> <Curation/DataSource>
ChEMBL

> <Article DOI>
10.1016/j.bmc.2015.05.032

> <BindingDB Entry DOI>
10.7270/Q28917N0

> <PMID>
26100442

> <Authors>
Du, Y; Ling, H; Zhang, M; Shen, J; Li, Q

> <Institution>
Qilu University of Technology

> <Link to Ligand in BindingDB>
http://www.bindingdb.org/bind/chemsearch/marvin/MolStructure.jsp?monomerid=50096224

> <Link to Ligand-Target Pair in BindingDB>
http://www.bindingdb.org/jsp/dbsearch/PrimarySearch_ki.jsp?energyterm=kJ/mole&tag=pol&polymerid=2622&target=Tyrosine-protein+phosphatase+non-receptor+type+1&column=ki&startPg=0&Increment=50&submit=Sea
rch
http://www.bindingdb.org/jsp/dbsearch/PrimarySearch_ki.jsp?energyterm=kJ/mole&tag=r21&monomerid=50096224&enzyme=Tyrosine-protein+phosphatase+non-receptor+type+1&column=ki&startPg=0&Increment=50&submit
=Search

> <PubChem CID of Ligand>
122182197

> <PubChem SID of Ligand>
103993791

> <ChEMBL ID of Ligand>
CHEMBL3593822

> <ZINC ID of Ligand>
ZINC38377726

> <Number of Protein Chains in Target (bigger than 1 implies a multichain complex)>
1

> <BindingDB Target Chain Sequence>
MEMEKEFEQIDKSGSWAAIYQDIRHEASDFPCRVAKLPKNKNRNRYRDVSPFDHSRIKLHQEDNDYINASLIKMEEAQRSYILTQGPLPNTCGHFWEMVWEQKSRGVVMLNRVMEKGSLKCAQYWPQKEEKEMIFEDTNLKLTLISEDIKSYYTVRQLELENLTTQETREILHFHYTTWPDFGVPESPASFLNFLFKVRE
SGSLSPEHGPVVVHCSAGIGRSGTFCLADTCLLLMDKRKDPSSVDIKKVLLEMRKFRMGLIQTADQLRFSYLAVIEGAKFIMGDSSVQDQWKELSHEDLEPPPEHIPPPPRPPKRILEPHNGKCREFFPNHQWVKEETQEDKDCPIKEEKGSPLNAAPYGIESMSQDTEVRSRVVGGSLRGAQAASPAKGEPSLPEKDED
HALSYWKPFLVNMCVATVLTAGAYLCYRFLFNSNT

> <PDB ID(s) of Target Chain>
1BZJ,1G7G,1GFY,1JF7,1KAK,1KAV,1LQF,1NL9,1NNY,1NO6,1NZ7,1OEM,1OEO,1OES,1OET,1OEU,1OEV,1ONY,1ONZ,1PH0,1PXH,1PYN,1Q1M,1Q6J,1Q6M,1Q6N,1Q6P,1Q6S,1Q6T,1QXK,1SUG,1T48,1T49,1T4J,1WAX,1XBO,2AZR,2B07,2BGD,2BGE,
2CM2,2CM3,2CM7,2CM8,2CMA,2CMB,2CMC,2CNE,2CNF,2CNG,2CNH,2CNI,2F6T,2F6V,2F6W,2F6Y,2F6Z,2F70,2F71,2FJN,2H4G,2H4K,2HB1,2HNP,2HNQ,2QBP,2QBQ,2QBR,2QBS,2VEU,2VEV,2VEW,2VEX,2VEY,2ZMM,2ZN7,3A5J,3CWE,3D9C,3EAX,
3EB1,3EU0,3I7Z,3I80,3SME,4BJO,4I8N,4QBW,4Y14,5K9V,5K9W,5KA0,5KA1,5T19,6B90,6NTP,6W30,7KEY,7KLX,7LFO,7MN9,7MNA,8DU7,8G65,8G67,8G68,8G69,8G6A,8SKL

> <UniProt (SwissProt) Recommended Name of Target Chain>
Tyrosine-protein phosphatase non-receptor type 1

> <UniProt (SwissProt) Entry Name of Target Chain>
PTN1_HUMAN

> <UniProt (SwissProt) Primary ID of Target Chain>
P18031

> <UniProt (SwissProt) Secondary ID(s) of Target Chain>
Q5TGD8 Q9BQV9 Q9NQQ4

$$$$
Molecule
  SciTegic10242319433D

 63 65  0  0  0  0            999 V2000
   -1.1326   -1.9192   -0.2365 S   0  0
    7.7045   -5.4342   -0.5256 P   0  0
    6.6404   -5.3289    0.7554 C   0  0
    0.2452   -3.0341    0.1159 N   0  0
   -0.9573   -0.1583   -0.1081 C   0  0
   -2.2792   -2.1650    0.7227 O   0  0
   -1.6155   -2.1991   -1.6456 O   0  0
    5.3511   -4.5970    0.4039 C   0  0
   -0.0475   -4.4446   -0.4758 C   0  0
    8.0607   -4.1761   -0.9665 O   0  0
   -2.3817   -7.4245    0.0337 C   0  0
    1.5568   -2.5214   -0.5002 C   0  0
    0.0818    6.1126    0.0281 C   0  0
   -2.3609   -8.8772   -0.0502 C   0  0
   -1.2968   -6.7132   -0.2233 C   0  0
    7.2857   -4.6157    1.7417 F   0  0
    6.3324   -6.5894    1.2254 F   0  0
   -1.3229   -5.2489   -0.1273 C   0  0
    7.0517   -6.2273   -1.6845 O   0  0
    8.9799   -6.1816   -0.0504 O   0  0
   -1.0545    6.6001    0.0041 O   0  0
   -1.2999   -9.4553   -0.3417 O   0  0
    0.2002    0.4993   -0.0702 C   0  0
   -2.2146    0.5848   -0.0778 C   0  0
    4.1934   -5.1280    0.7858 C   0  0
    5.3489   -3.3108   -0.3119 C   0  0
   -1.0391    4.0336    0.0534 O   0  0
    2.8990   -3.2885   -0.1641 C   0  0
    0.2535    4.6272    0.0589 C   0  0
   -0.9803    2.6387    0.0140 C   0  0
    1.1956    6.9410    0.0127 O   0  0
    4.1919   -2.6943   -0.5833 C   0  0
    2.9290   -4.4504    0.4961 C   0  0
   -2.2263    1.9069   -0.0196 C   0  0
    0.1841    1.9774   -0.0048 C   0  0
   -3.6326   -6.7645    0.4153 C   0  0
   -3.6651   -5.4408    0.5051 C   0  0
   -2.4699   -4.6710    0.2199 C   0  0
   -3.6004   -9.6726    0.2198 C   0  0
   -0.0547   -4.3219   -1.5588 H   0  0
    0.7944   -5.0737   -0.1865 H   0  0
    1.4348   -2.5459   -1.5830 H   0  0
    1.6849   -1.4900   -0.1717 H   0  0
   -0.3747   -7.2192   -0.5092 H   0  0
    6.8088   -7.1941   -1.3545 H   0  0
    9.4234   -5.6507    0.7396 H   0  0
    1.1454   -0.0433   -0.0872 H   0  0
   -3.1591    0.0412   -0.1037 H   0  0
    4.1860   -6.0779    1.3202 H   0  0
    6.2914   -2.8592   -0.6216 H   0  0
    0.8133    4.3018   -0.8179 H   0  0
    0.7901    4.3360    0.9619 H   0  0
    1.7709    6.7707    0.8745 H   0  0
    4.2001   -1.7448   -1.1185 H   0  0
    1.9932   -4.9022    0.8252 H   0  0
   -3.1748    2.4435    0.0031 H   0  0
    1.1231    2.5299    0.0281 H   0  0
   -4.5259   -7.3534    0.6230 H   0  0
   -4.5866   -4.9342    0.7920 H   0  0
   -2.5125   -3.5843    0.2921 H   0  0
   -3.3829  -10.7347    0.1074 H   0  0
   -4.3786   -9.3848   -0.4872 H   0  0
   -3.9434   -9.4780    1.2360 H   0  0
  2  3  1  0
  3  8  1  0
  4  1  1  0
  5  1  1  0
  6  1  2  0
  7  1  2  0
  8 25  2  0
  9  4  1  0
 10  2  2  0
 11 15  2  0
 12  4  1  0
 13 29  1  0
 14 11  1  0
 15 18  1  0
 16  3  1  0
 17  3  1  0
 18  9  1  0
 19  2  1  0
 20  2  1  0
 21 13  2  0
 22 14  2  0
 23  5  2  0
 24  5  1  0
 25 33  1  0
 26 32  2  0
 27 30  1  0
 28 12  1  0
 29 27  1  0
 30 34  1  0
 31 13  1  0
 32 28  1  0
 33 28  2  0
 34 24  2  0
 35 23  1  0
 36 37  2  0
 37 38  1  0
 38 18  2  0
 39 14  1  0
 30 35  2  0
 26  8  1  0
 11 36  1  0
  9 40  1  0
  9 41  1  0
 12 42  1  0
 12 43  1  0
 15 44  1  0
 19 45  1  0
 20 46  1  0
 23 47  1  0
 24 48  1  0
 25 49  1  0
 26 50  1  0
 29 51  1  0
 29 52  1  0
 31 53  1  0
 32 54  1  0
 33 55  1  0
 34 56  1  0
 35 57  1  0
 36 58  1  0
 37 59  1  0
 38 60  1  0
 39 61  1  0
 39 62  1  0
 39 63  1  0
M  END
> <Name>
Molecule

> <Clean Energy>
38.2786

> <From>
www.bindingDB.org

> <BindingDB Reactant_set_id>
50315598

> <Ligand InChI>
InChI=1S/C25H24F2NO9PS/c1-17(29)20-4-2-3-19(13-20)15-28(14-18-5-7-21(8-6-18)25(26,27)38(32,33)34)39(35,36)23-11-9-22(10-12-23)37-16-24(30)31/h2-13H,14-16H2,1H3,(H,30,31)(H2,32,33,34)

> <Ligand InChI Key>
WPOUODNDDMGKFA-UHFFFAOYSA-N

> <BindingDB MonomerID>
50171103

> <BindingDB Ligand Name>
(4-{(3-Acetyl-benzyl)-[4-(difluoro-phosphono-methyl)-benzyl]-sulfamoyl}-phenoxy)-acetic acid::CHEMBL197932

> <Target Name>
Tyrosine-protein phosphatase non-receptor type 1

> <Target Source Organism According to Curator or DataSource>
Homo sapiens

> <IC50 (nM)>
770

> <Curation/DataSource>
ChEMBL

> <Article DOI>
10.1016/j.bmcl.2005.06.061

> <BindingDB Entry DOI>
10.7270/Q2M61JSK

> <PMID>
16046123

> <Authors>
Holmes, CP; Li, X; Pan, Y; Xu, C; Bhandari, A; Moody, CM; Miguel, JA; Ferla, SW; De Francisco, MN; Frederick, BT; Zhou, S; Macher, N; Jang, L; Irvine, JD; Grove, JR

> <Institution>
Affymax, Inc.

> <Link to Ligand in BindingDB>
http://www.bindingdb.org/bind/chemsearch/marvin/MolStructure.jsp?monomerid=50171103

> <Link to Ligand-Target Pair in BindingDB>
http://www.bindingdb.org/jsp/dbsearch/PrimarySearch_ki.jsp?energyterm=kJ/mole&tag=pol&polymerid=2622&target=Tyrosine-protein+phosphatase+non-receptor+type+1&column=ki&startPg=0&Increment=50&submit=Sea
rch
http://www.bindingdb.org/jsp/dbsearch/PrimarySearch_ki.jsp?energyterm=kJ/mole&tag=r21&monomerid=50171103&enzyme=Tyrosine-protein+phosphatase+non-receptor+type+1&column=ki&startPg=0&Increment=50&submit
=Search

> <PubChem CID of Ligand>
44404358

> <PubChem SID of Ligand>
104057400

> <ChEMBL ID of Ligand>
CHEMBL197932

> <ZINC ID of Ligand>
ZINC28528723

> <Number of Protein Chains in Target (bigger than 1 implies a multichain complex)>
1

> <BindingDB Target Chain Sequence>
MEMEKEFEQIDKSGSWAAIYQDIRHEASDFPCRVAKLPKNKNRNRYRDVSPFDHSRIKLHQEDNDYINASLIKMEEAQRSYILTQGPLPNTCGHFWEMVWEQKSRGVVMLNRVMEKGSLKCAQYWPQKEEKEMIFEDTNLKLTLISEDIKSYYTVRQLELENLTTQETREILHFHYTTWPDFGVPESPASFLNFLFKVRE
SGSLSPEHGPVVVHCSAGIGRSGTFCLADTCLLLMDKRKDPSSVDIKKVLLEMRKFRMGLIQTADQLRFSYLAVIEGAKFIMGDSSVQDQWKELSHEDLEPPPEHIPPPPRPPKRILEPHNGKCREFFPNHQWVKEETQEDKDCPIKEEKGSPLNAAPYGIESMSQDTEVRSRVVGGSLRGAQAASPAKGEPSLPEKDED
HALSYWKPFLVNMCVATVLTAGAYLCYRFLFNSNT

> <PDB ID(s) of Target Chain>
1BZJ,1G7G,1GFY,1JF7,1KAK,1KAV,1LQF,1NL9,1NNY,1NO6,1NZ7,1OEM,1OEO,1OES,1OET,1OEU,1OEV,1ONY,1ONZ,1PH0,1PXH,1PYN,1Q1M,1Q6J,1Q6M,1Q6N,1Q6P,1Q6S,1Q6T,1QXK,1SUG,1T48,1T49,1T4J,1WAX,1XBO,2AZR,2B07,2BGD,2BGE,
2CM2,2CM3,2CM7,2CM8,2CMA,2CMB,2CMC,2CNE,2CNF,2CNG,2CNH,2CNI,2F6T,2F6V,2F6W,2F6Y,2F6Z,2F70,2F71,2FJN,2H4G,2H4K,2HB1,2HNP,2HNQ,2QBP,2QBQ,2QBR,2QBS,2VEU,2VEV,2VEW,2VEX,2VEY,2ZMM,2ZN7,3A5J,3CWE,3D9C,3EAX,
3EB1,3EU0,3I7Z,3I80,3SME,4BJO,4I8N,4QBW,4Y14,5K9V,5K9W,5KA0,5KA1,5T19,6B90,6NTP,6W30,7KEY,7KLX,7LFO,7MN9,7MNA,8DU7,8G65,8G67,8G68,8G69,8G6A,8SKL

> <UniProt (SwissProt) Recommended Name of Target Chain>
Tyrosine-protein phosphatase non-receptor type 1

> <UniProt (SwissProt) Entry Name of Target Chain>
PTN1_HUMAN

> <UniProt (SwissProt) Primary ID of Target Chain>
P18031

> <UniProt (SwissProt) Secondary ID(s) of Target Chain>
Q5TGD8 Q9BQV9 Q9NQQ4

$$$$
Molecule
  SciTegic10242319433D

 99105  0  0  0  0            999 V2000
   18.5604  -11.1334   -0.2002 C   0  0
   18.6621  -12.4519   -0.0490 C   0  0
   20.0590  -13.0315    0.2545 C   0  0
   19.6938  -10.1920   -0.1112 C   0  0
   19.2725   -8.7685   -0.2473 O   0  0
   20.1811   -7.6379   -0.1353 C   0  0
   20.0980  -14.4720    0.5313 O   0  0
   17.2779  -13.2961   -0.3310 C   0  0  2  0  0  0
   16.1633  -12.5089    0.2286 O   0  0
   14.8230  -12.9976   -0.1629 C   0  0  1  0  0  0
   14.5819  -14.5129    0.3498 C   0  0  2  0  0  0
   15.7364  -15.3994   -0.3109 C   0  0  1  0  0  0
   17.1761  -14.8250    0.1388 C   0  0  1  0  0  0
   13.7571  -12.0732    0.4681 C   0  0
   13.7687  -10.6940    0.1651 N   0  0
   12.6028  -10.0546    0.1954 C   0  0
   12.4484   -8.5809    0.0281 C   0  0
   11.5796  -10.7176    0.4112 O   0  0
   13.2378  -15.1326   -0.0413 O   0  0
   11.9547  -14.7028    0.5117 C   0  0
   10.7112  -15.3960    0.1483 C   0  0
   11.8575  -13.7890    1.3310 O   0  0
   15.6757  -16.8169    0.0832 O   0  0
   14.5898  -17.6026   -0.3742 C   0  0
   14.5709  -19.0372   -0.0904 C   0  0
   13.6922  -17.1310   -1.0739 O   0  0
   18.2862  -15.6351   -0.4651 O   0  0
   21.2792  -15.1609    1.0453 C   0  0
   18.4557  -16.9528    0.1361 C   0  0
   17.7269  -17.3075    1.0667 O   0  0
   13.4515   -7.6756   -0.0998 C   0  0
   13.0980   -6.2511   -0.2299 C   0  0
   11.8345   -5.8393   -0.2197 C   0  0
   10.7643   -6.8016   -0.0820 C   0  0
   11.0513   -8.0943    0.0339 C   0  0
   14.9303   -7.9554   -0.1079 C   0  0
   15.4919   -9.2081    0.0018 O   0  0
   15.6962   -6.9929   -0.2062 O   0  0
    9.5446  -14.8760    0.5317 C   0  0
    8.2890  -15.5559    0.2078 C   0  0
    8.3129  -16.7119   -0.4523 C   0  0
    9.5962  -17.2921   -0.8656 C   0  0
   10.7373  -16.6602   -0.5886 C   0  0
   13.5125  -19.7662   -0.4407 C   0  0
   13.4990  -21.2096   -0.1888 C   0  0
   14.5547  -21.7973    0.3722 C   0  0
   15.7240  -20.9971    0.7496 C   0  0
   15.7282  -19.6817    0.5367 C   0  0
   19.6094  -17.8370   -0.1978 C   0  0
   19.7840  -18.9510    0.5152 C   0  0
   20.9553  -19.8046    0.2896 C   0  0
   21.8702  -19.4542   -0.6120 C   0  0
   21.6886  -18.2292   -1.3996 C   0  0
   20.6096  -17.4647   -1.2145 C   0  0
   20.9486  -10.6991    0.0629 C   0  0
   21.1391  -12.1678    0.2494 C   0  0
   22.5716  -12.5928    0.4476 C   0  0
   23.6063  -11.7652    0.4443 C   0  0
   23.4121  -10.3604    0.2742 C   0  0
   22.1930   -9.8606    0.1076 C   0  0
   17.5723  -10.7205   -0.4037 H   0  0
   19.6262   -6.7100   -0.2736 H   0  0
   20.9545   -7.7155   -0.8995 H   0  0
   20.6444   -7.6398    0.8514 H   0  0
   17.1370  -13.2990   -1.4118 H   0  0
   14.7307  -12.9655   -1.2485 H   0  0
   14.6861  -14.5430    1.4344 H   0  0
   15.6541  -15.3321   -1.3957 H   0  0
   17.2535  -14.8694    1.2252 H   0  0
   12.7835  -12.4569    0.1632 H   0  0
   13.8605  -12.1614    1.5496 H   0  0
   14.6775  -10.1846   -0.0788 H   0  0
   21.0578  -16.2212    1.1669 H   0  0
   21.5577  -14.7355    2.0095 H   0  0
   22.1046  -15.0408    0.3436 H   0  0
   13.8946   -5.5150   -0.3374 H   0  0
   11.6054   -4.7779   -0.3151 H   0  0
    9.7265   -6.4685   -0.0733 H   0  0
   10.2380   -8.8128    0.1357 H   0  0
   16.0767   -9.4057   -0.8477 H   0  0
    9.5257  -13.9397    1.0894 H   0  0
    7.3371  -15.1167    0.5062 H   0  0
    7.3808  -17.2266   -0.6854 H   0  0
    9.6164  -18.2417   -1.4002 H   0  0
   11.6882  -17.0846   -0.9106 H   0  0
   12.6555  -19.2884   -0.9153 H   0  0
   12.6254  -21.8022   -0.4603 H   0  0
   14.5493  -22.8726    0.5507 H   0  0
   16.5899  -21.4782    1.2043 H   0  0
   16.5924  -19.0851    0.8289 H   0  0
   19.0501  -19.2292    1.2716 H   0  0
   21.0766  -20.7256    0.8599 H   0  0
   22.7524  -20.0758   -0.7648 H   0  0
   22.4371  -17.9425   -2.1383 H   0  0
   20.4685  -16.5660   -1.8148 H   0  0
   22.7697  -13.6532    0.6044 H   0  0
   24.6142  -12.1597    0.5725 H   0  0
   24.2730   -9.6919    0.2811 H   0  0
   22.0903   -8.7811   -0.0028 H   0  0
 27 29  1  0
  5  6  1  0
 29 30  2  0
 10 14  1  0
 17 31  2  0
  3 56  2  0
 31 32  1  0
 14 15  1  0
 32 33  2  0
  3  7  1  0
 33 34  1  0
 15 16  1  0
 34 35  2  0
 35 17  1  0
  8  9  1  0
 16 17  1  0
  1  2  2  0
 36 37  1  0
 36 38  2  0
 31 36  1  0
 16 18  2  0
 21 39  2  0
 55  4  2  0
 39 40  1  0
 11 19  1  0
 40 41  2  0
  4  1  1  0
 41 42  1  0
 19 20  1  0
 42 43  2  0
 43 21  1  0
 25 44  2  0
 20 21  1  0
 44 45  1  0
  4  5  1  0
 45 46  2  0
 20 22  2  0
 46 47  1  0
  2  3  1  0
 47 48  2  0
 48 25  1  0
 12 23  1  0
 29 49  1  0
 13  8  1  0
 49 50  2  0
 23 24  1  0
 50 51  1  0
 10  9  1  0
 51 52  2  0
 24 25  1  0
 52 53  1  0
 11 10  1  0
 53 54  2  0
 54 49  1  0
 24 26  2  0
 13 27  1  0
 55 56  1  0
 11 12  1  0
 56 57  1  0
 12 13  1  0
 57 58  2  0
  7 28  1  0
 58 59  1  0
  8  2  1  0
 59 60  2  0
 60 55  1  0
  1 61  1  0
  6 62  1  0
  6 63  1  0
  6 64  1  0
  8 65  1  0
 10 66  1  0
 11 67  1  0
 12 68  1  0
 13 69  1  0
 14 70  1  0
 14 71  1  0
 15 72  1  0
 28 73  1  0
 28 74  1  0
 28 75  1  0
 32 76  1  0
 33 77  1  0
 34 78  1  0
 35 79  1  0
 37 80  1  0
 39 81  1  0
 40 82  1  0
 41 83  1  0
 42 84  1  0
 43 85  1  0
 44 86  1  0
 45 87  1  0
 46 88  1  0
 47 89  1  0
 48 90  1  0
 50 91  1  0
 51 92  1  0
 52 93  1  0
 53 94  1  0
 54 95  1  0
 57 96  1  0
 58 97  1  0
 59 98  1  0
 60 99  1  0
M  END
> <Name>
Molecule

> <Clean Energy>
73.2628

> <From>
www.bindingDB.org

> <BindingDB Reactant_set_id>
50876110

> <Ligand InChI>
InChI=1S/C47H39NO12/c1-55-36-26-35(38(56-2)32-23-13-12-22-31(32)36)39-41(59-46(53)29-18-8-4-9-19-29)42(60-47(54)30-20-10-5-11-21-30)40(58-45(52)28-16-6-3-7-17-28)37(57-39)27-48-43(49)33-24-14-15-25-34
(33)44(50)51/h3-26,37,39-42H,27H2,1-2H3,(H,48,49)(H,50,51)/t37-,39+,40-,41+,42+/m1/s1

> <Ligand InChI Key>
CQKAFRVMNZBKAN-IPCCRVIKSA-N

> <BindingDB MonomerID>
50245900

> <BindingDB Ligand Name>
2-((((2R,3R,4R,5S,6S)-3,4,5-tris(benzoyloxy)-6-(1,4-dimethoxynaphthalen-2-yl)-tetrahydro-2H-pyran-2-yl)methyl)carbamoyl)benzoic acid::CHEMBL492413

> <Target Name>
Tyrosine-protein phosphatase non-receptor type 1

> <Target Source Organism According to Curator or DataSource>
Homo sapiens

> <IC50 (nM)>
770

> <Curation/DataSource>
ChEMBL

> <Article DOI>
10.1016/j.bmcl.2008.10.091

> <BindingDB Entry DOI>
10.7270/Q28W3F68

> <PMID>
18993066

> <Authors>
Lin, L; Shen, Q; Chen, GR; Xie, J

> <Institution>
CNRS

> <Link to Ligand in BindingDB>
http://www.bindingdb.org/bind/chemsearch/marvin/MolStructure.jsp?monomerid=50245900

> <Link to Ligand-Target Pair in BindingDB>
http://www.bindingdb.org/jsp/dbsearch/PrimarySearch_ki.jsp?energyterm=kJ/mole&tag=pol&polymerid=2622&target=Tyrosine-protein+phosphatase+non-receptor+type+1&column=ki&startPg=0&Increment=50&submit=Sea
rch
http://www.bindingdb.org/jsp/dbsearch/PrimarySearch_ki.jsp?energyterm=kJ/mole&tag=r21&monomerid=50245900&enzyme=Tyrosine-protein+phosphatase+non-receptor+type+1&column=ki&startPg=0&Increment=50&submit
=Search

> <PubChem CID of Ligand>
25154757

> <PubChem SID of Ligand>
104101457

> <ChEMBL ID of Ligand>
CHEMBL492413

> <KEGG ID of Ligand>
C06374

> <ZINC ID of Ligand>
ZINC95615614

> <Number of Protein Chains in Target (bigger than 1 implies a multichain complex)>
1

> <BindingDB Target Chain Sequence>
MEMEKEFEQIDKSGSWAAIYQDIRHEASDFPCRVAKLPKNKNRNRYRDVSPFDHSRIKLHQEDNDYINASLIKMEEAQRSYILTQGPLPNTCGHFWEMVWEQKSRGVVMLNRVMEKGSLKCAQYWPQKEEKEMIFEDTNLKLTLISEDIKSYYTVRQLELENLTTQETREILHFHYTTWPDFGVPESPASFLNFLFKVRE
SGSLSPEHGPVVVHCSAGIGRSGTFCLADTCLLLMDKRKDPSSVDIKKVLLEMRKFRMGLIQTADQLRFSYLAVIEGAKFIMGDSSVQDQWKELSHEDLEPPPEHIPPPPRPPKRILEPHNGKCREFFPNHQWVKEETQEDKDCPIKEEKGSPLNAAPYGIESMSQDTEVRSRVVGGSLRGAQAASPAKGEPSLPEKDED
HALSYWKPFLVNMCVATVLTAGAYLCYRFLFNSNT

> <PDB ID(s) of Target Chain>
1BZJ,1G7G,1GFY,1JF7,1KAK,1KAV,1LQF,1NL9,1NNY,1NO6,1NZ7,1OEM,1OEO,1OES,1OET,1OEU,1OEV,1ONY,1ONZ,1PH0,1PXH,1PYN,1Q1M,1Q6J,1Q6M,1Q6N,1Q6P,1Q6S,1Q6T,1QXK,1SUG,1T48,1T49,1T4J,1WAX,1XBO,2AZR,2B07,2BGD,2BGE,
2CM2,2CM3,2CM7,2CM8,2CMA,2CMB,2CMC,2CNE,2CNF,2CNG,2CNH,2CNI,2F6T,2F6V,2F6W,2F6Y,2F6Z,2F70,2F71,2FJN,2H4G,2H4K,2HB1,2HNP,2HNQ,2QBP,2QBQ,2QBR,2QBS,2VEU,2VEV,2VEW,2VEX,2VEY,2ZMM,2ZN7,3A5J,3CWE,3D9C,3EAX,
3EB1,3EU0,3I7Z,3I80,3SME,4BJO,4I8N,4QBW,4Y14,5K9V,5K9W,5KA0,5KA1,5T19,6B90,6NTP,6W30,7KEY,7KLX,7LFO,7MN9,7MNA,8DU7,8G65,8G67,8G68,8G69,8G6A,8SKL

> <UniProt (SwissProt) Recommended Name of Target Chain>
Tyrosine-protein phosphatase non-receptor type 1

> <UniProt (SwissProt) Entry Name of Target Chain>
PTN1_HUMAN

> <UniProt (SwissProt) Primary ID of Target Chain>
P18031

> <UniProt (SwissProt) Secondary ID(s) of Target Chain>
Q5TGD8 Q9BQV9 Q9NQQ4

$$$$
Molecule
  SciTegic10242319433D

 89 95  0  0  0  0            999 V2000
   12.0428   -4.7742    0.1203 C   0  0
   13.3638   -3.9771   -0.1172 C   0  0
   14.5823   -4.5920   -0.0085 N   0  0
   13.2881   -2.7875   -0.4453 O   0  0
   15.9143   -3.9171   -0.2772 C   0  0  2  0  0  0
   17.1106   -4.9636   -0.1276 C   0  0
   16.0709   -2.5140    0.5508 C   0  0
   17.3472   -1.5910    0.3481 C   0  0
   16.9988   -6.6249   -0.0699 S   0  0
   18.6579   -6.9727    0.0074 C   0  0
   19.3087   -5.7753   -0.0476 C   0  0
   18.3553   -4.6628   -0.1029 N   0  0
   18.5361   -2.0956    0.0603 C   0  0
   19.7239   -1.2991   -0.0635 C   0  0
   19.6686    0.0127    0.1027 C   0  0
   18.3611    0.6373    0.4056 C   0  0
   17.2609   -0.1235    0.5301 C   0  0
   20.8210   -5.4312   -0.0006 C   0  0
   21.7983   -6.3580    0.0141 N   0  0
   23.2384   -6.1109    0.0192 C   0  0
   10.7495   -3.8569   -0.0261 C   0  0
    9.4236   -4.6639    0.0498 C   0  0
   20.8601    0.7763    0.0198 O   0  0
   21.9935   -0.1086   -0.2059 C   0  0
   23.2980    0.6342   -0.1386 C   0  0
   24.4477   -0.0409   -0.1818 C   0  0
   25.7246    0.6761   -0.1080 C   0  0
   25.7349    2.0034    0.0021 C   0  0
   24.4698    2.7439    0.0499 C   0  0
   23.3101    2.0910   -0.0158 C   0  0
   21.1240   -4.2325   -0.0309 O   0  0
   24.0618   -7.1642    0.0152 C   0  0
   25.5077   -6.9918    0.0136 C   0  0
   26.0422   -5.7787    0.0147 C   0  0
   25.1644   -4.5968    0.0197 C   0  0
   23.8344   -4.7499    0.0216 C   0  0
   19.1628   -8.3903    0.0363 C   0  0
   18.2651   -9.3735    0.0296 C   0  0
   18.6942  -10.7772    0.0680 C   0  0
   19.9883  -11.0792    0.1228 C   0  0
   20.9688  -10.0124    0.1398 C   0  0
   20.5713   -8.7431    0.1080 C   0  0
    7.9153   -6.3708    0.1668 N   0  0
    9.3251   -6.0009    0.1344 C   0  0
    7.1805   -5.1874    0.0941 C   0  0
    8.0662   -4.1158    0.0236 C   0  0
    7.6567   -2.8543   -0.0519 C   0  0
    6.1847   -2.6192   -0.0598 C   0  0
    5.3339   -3.6557    0.0059 C   0  0
    5.8591   -5.0374    0.0891 C   0  0
   27.5037   -5.6461    0.0096 C   0  0
   28.3002   -6.7919    0.0019 O   0  0
   28.0310   -4.5290    0.0087 O   0  0
   23.5712   -8.3945    0.0104 F   0  0
   11.9844   -5.5814   -0.6098 H   0  0
   12.0627   -5.1940    1.1260 H   0  0
   14.5961   -5.6204    0.2866 H   0  0
   15.8965   -3.6378   -1.3307 H   0  0
   15.2030   -1.9049    0.2979 H   0  0
   16.0383   -2.7719    1.6093 H   0  0
   18.6177   -3.1720   -0.0905 H   0  0
   20.6757   -1.7770   -0.2956 H   0  0
   18.2907    1.7182    0.5279 H   0  0
   16.3029    0.3399    0.7656 H   0  0
   21.4877   -7.3818    0.0228 H   0  0
   10.7539   -3.1192    0.7764 H   0  0
   10.7918   -3.3475   -0.9888 H   0  0
   21.9908   -0.8880    0.5561 H   0  0
   21.8962   -0.5634   -1.1917 H   0  0
   24.4379   -1.1271   -0.2722 H   0  0
   26.6637    0.1238   -0.1431 H   0  0
   26.6827    2.5389    0.0566 H   0  0
   24.4783    3.8302    0.1393 H   0  0
   22.3708    2.6428    0.0220 H   0  0
   26.1562   -7.8679    0.0115 H   0  0
   25.5976   -3.5966    0.0220 H   0  0
   23.1866   -3.8733    0.0248 H   0  0
   17.2022   -9.1343   -0.0047 H   0  0
   17.9503  -11.5737    0.0516 H   0  0
   20.3087  -12.1206    0.1548 H   0  0
   22.0319  -10.2498    0.1785 H   0  0
   21.3185   -7.9499    0.1365 H   0  0
    7.5192   -7.3625    0.2336 H   0  0
   10.1634   -6.6965    0.1727 H   0  0
    8.3655   -2.0280   -0.1056 H   0  0
    5.7977   -1.6019   -0.1191 H   0  0
    4.2581   -3.4802   -0.0019 H   0  0
    5.1903   -5.8963    0.1440 H   0  0
   28.0973   -7.3656    0.8577 H   0  0
  1  2  1  0
  2  3  1  0
  2  4  2  0
  5  3  1  0
  5  6  1  0
  5  7  1  0
  7  8  1  0
  6  9  1  0
  9 10  1  0
 10 11  2  0
 11 12  1  0
 12  6  2  0
  8 13  2  0
 13 14  1  0
 14 15  2  0
 15 16  1  0
 16 17  2  0
 17  8  1  0
 11 18  1  0
 18 19  1  0
 19 20  1  0
  1 21  1  0
 21 22  1  0
 15 23  1  0
 23 24  1  0
 24 25  1  0
 25 26  2  0
 26 27  1  0
 27 28  2  0
 28 29  1  0
 29 30  2  0
 30 25  1  0
 18 31  2  0
 20 32  2  0
 32 33  1  0
 33 34  2  0
 34 35  1  0
 35 36  2  0
 36 20  1  0
 37 38  2  0
 38 39  1  0
 39 40  2  0
 40 41  1  0
 41 42  2  0
 42 37  1  0
 10 37  1  0
 22 46  1  0
 45 43  1  0
 43 44  1  0
 44 22  2  0
 45 46  1  0
 46 47  2  0
 47 48  1  0
 48 49  2  0
 49 50  1  0
 50 45  2  0
 34 51  1  0
 51 52  1  0
 51 53  2  0
 32 54  1  0
  1 55  1  0
  1 56  1  0
  3 57  1  0
  5 58  1  0
  7 59  1  0
  7 60  1  0
 13 61  1  0
 14 62  1  0
 16 63  1  0
 17 64  1  0
 19 65  1  0
 21 66  1  0
 21 67  1  0
 24 68  1  0
 24 69  1  0
 26 70  1  0
 27 71  1  0
 28 72  1  0
 29 73  1  0
 30 74  1  0
 33 75  1  0
 35 76  1  0
 36 77  1  0
 38 78  1  0
 39 79  1  0
 40 80  1  0
 41 81  1  0
 42 82  1  0
 43 83  1  0
 44 84  1  0
 47 85  1  0
 48 86  1  0
 49 87  1  0
 50 88  1  0
 52 89  1  0
M  END
> <Name>
Molecule

> <Clean Energy>
80.826

> <From>
www.bindingDB.org

> <BindingDB Reactant_set_id>
51080360

> <Ligand InChI>
InChI=1S/C43H35FN4O5S/c44-34-24-30(43(51)52)17-21-36(34)47-41(50)39-40(29-11-5-2-6-12-29)54-42(48-39)37(46-38(49)22-18-31-25-45-35-14-8-7-13-33(31)35)23-27-15-19-32(20-16-27)53-26-28-9-3-1-4-10-28/h1-
17,19-21,24-25,37,45H,18,22-23,26H2,(H,46,49)(H,47,50)(H,51,52)/t37-/m0/s1

> <Ligand InChI Key>
CVEZSZMYAOIEHQ-QNGWXLTQSA-N

> <BindingDB MonomerID>
50441781

> <BindingDB Ligand Name>
CHEMBL2436043

> <Target Name>
Tyrosine-protein phosphatase non-receptor type 1

> <Target Source Organism According to Curator or DataSource>
Homo sapiens

> <IC50 (nM)>
770

> <Curation/DataSource>
ChEMBL

> <Article DOI>
10.1016/j.ejmech.2013.09.017

> <BindingDB Entry DOI>
10.7270/Q2VM4DP1

> <PMID>
24090912

> <Authors>
Chen, YT; Tang, CL; Ma, WP; Gao, LX; Wei, Y; Zhang, W; Li, JY; Li, J; Nan, FJ

> <Institution>
Chinese Academy of Sciences

> <Link to Ligand in BindingDB>
http://www.bindingdb.org/bind/chemsearch/marvin/MolStructure.jsp?monomerid=50441781

> <Link to Ligand-Target Pair in BindingDB>
http://www.bindingdb.org/jsp/dbsearch/PrimarySearch_ki.jsp?energyterm=kJ/mole&tag=pol&polymerid=2622&target=Tyrosine-protein+phosphatase+non-receptor+type+1&column=ki&startPg=0&Increment=50&submit=Sea
rch
http://www.bindingdb.org/jsp/dbsearch/PrimarySearch_ki.jsp?energyterm=kJ/mole&tag=r21&monomerid=50441781&enzyme=Tyrosine-protein+phosphatase+non-receptor+type+1&column=ki&startPg=0&Increment=50&submit
=Search

> <PubChem CID of Ligand>
73352478

> <PubChem SID of Ligand>
175454098

> <ChEMBL ID of Ligand>
CHEMBL2436043

> <ZINC ID of Ligand>
ZINC96285488

> <Number of Protein Chains in Target (bigger than 1 implies a multichain complex)>
1

> <BindingDB Target Chain Sequence>
MEMEKEFEQIDKSGSWAAIYQDIRHEASDFPCRVAKLPKNKNRNRYRDVSPFDHSRIKLHQEDNDYINASLIKMEEAQRSYILTQGPLPNTCGHFWEMVWEQKSRGVVMLNRVMEKGSLKCAQYWPQKEEKEMIFEDTNLKLTLISEDIKSYYTVRQLELENLTTQETREILHFHYTTWPDFGVPESPASFLNFLFKVRE
SGSLSPEHGPVVVHCSAGIGRSGTFCLADTCLLLMDKRKDPSSVDIKKVLLEMRKFRMGLIQTADQLRFSYLAVIEGAKFIMGDSSVQDQWKELSHEDLEPPPEHIPPPPRPPKRILEPHNGKCREFFPNHQWVKEETQEDKDCPIKEEKGSPLNAAPYGIESMSQDTEVRSRVVGGSLRGAQAASPAKGEPSLPEKDED
HALSYWKPFLVNMCVATVLTAGAYLCYRFLFNSNT

> <PDB ID(s) of Target Chain>
1BZJ,1G7G,1GFY,1JF7,1KAK,1KAV,1LQF,1NL9,1NNY,1NO6,1NZ7,1OEM,1OEO,1OES,1OET,1OEU,1OEV,1ONY,1ONZ,1PH0,1PXH,1PYN,1Q1M,1Q6J,1Q6M,1Q6N,1Q6P,1Q6S,1Q6T,1QXK,1SUG,1T48,1T49,1T4J,1WAX,1XBO,2AZR,2B07,2BGD,2BGE,
2CM2,2CM3,2CM7,2CM8,2CMA,2CMB,2CMC,2CNE,2CNF,2CNG,2CNH,2CNI,2F6T,2F6V,2F6W,2F6Y,2F6Z,2F70,2F71,2FJN,2H4G,2H4K,2HB1,2HNP,2HNQ,2QBP,2QBQ,2QBR,2QBS,2VEU,2VEV,2VEW,2VEX,2VEY,2ZMM,2ZN7,3A5J,3CWE,3D9C,3EAX,
3EB1,3EU0,3I7Z,3I80,3SME,4BJO,4I8N,4QBW,4Y14,5K9V,5K9W,5KA0,5KA1,5T19,6B90,6NTP,6W30,7KEY,7KLX,7LFO,7MN9,7MNA,8DU7,8G65,8G67,8G68,8G69,8G6A,8SKL

> <UniProt (SwissProt) Recommended Name of Target Chain>
Tyrosine-protein phosphatase non-receptor type 1

> <UniProt (SwissProt) Entry Name of Target Chain>
PTN1_HUMAN

> <UniProt (SwissProt) Primary ID of Target Chain>
P18031

> <UniProt (SwissProt) Secondary ID(s) of Target Chain>
Q5TGD8 Q9BQV9 Q9NQQ4

$$$$
Molecule
  SciTegic10242319433D

108112  0  0  0  0            999 V2000
   22.5598  -13.9968   -0.4606 C   0  0  2  0  0  0
   22.6875  -12.6208    0.2608 C   0  0
   21.4161  -14.8925    0.2893 C   0  0  1  0  0  0
   18.7333  -14.7559    0.7452 C   0  0  2  0  0  0
   25.3102  -12.4774   -0.4660 C   0  0  1  0  0  0
   23.9549  -11.7505    0.0995 C   0  0  1  0  0  0
   20.0535  -14.0260    0.2272 C   0  0  1  0  0  0
   18.5960  -16.1017   -0.1342 C   0  0  2  0  0  0
   17.2454  -16.9336    0.1638 C   0  0
   21.6490  -12.0644    0.8772 C   0  0
   26.2658  -13.1500    0.5395 C   0  0
   23.9597  -14.6397   -0.6530 C   0  0
   21.1429  -16.1992   -0.5042 C   0  0
   20.2776  -12.7358    1.0821 C   0  0
   24.8793  -13.5945   -1.4481 C   0  0
   17.4807  -13.8874    0.4348 C   0  0
   19.8860  -16.9877    0.0722 C   0  0
   26.2039  -11.4440   -1.2696 C   0  0
   23.6377  -10.7165   -0.9532 C   0  0
   16.0716  -15.9618   -0.1443 C   0  0  2  0  0  0
   24.7684   -9.5726   -0.8173 C   0  0
   16.1600  -14.6831    0.7678 C   0  0
   26.1729  -10.2055   -0.4705 C   0  0
   22.1085  -13.7340   -1.9386 C   0  0
   21.9245  -15.2748    1.7187 C   0  0
   18.7890  -14.9482    2.2944 C   0  0
   14.8327  -16.6465    0.0752 O   0  0
   24.4492   -8.5505    0.3073 C   0  0
   24.8035   -8.8221   -2.1569 C   0  0
   17.1677  -18.1378   -0.7923 C   0  0
   17.0820  -17.5141    1.6002 C   0  0
   25.8944  -13.7915    1.5314 O   0  0
   27.6709  -12.9413    0.2001 O   0  0
   28.7613  -13.5095    0.9883 C   0  0
   30.0959  -12.9032    0.3444 C   0  0
   31.4544  -13.5022    0.8776 C   0  0
   32.6783  -12.7467    0.2040 C   0  0
   34.0632  -13.3992    0.5757 C   0  0
   35.2617  -12.5683   -0.0158 C   0  0
   36.6325  -13.2760    0.2651 C   0  0
   37.8195  -12.3849   -0.2174 C   0  0
   39.1493  -13.0937   -0.0220 C   0  0
   39.1820  -14.4305    0.3636 O   0  0
   40.2106  -12.4901   -0.2278 O   0  0
   24.1764  -11.2524    1.0434 H   0  0
   19.8905  -13.7236   -0.8072 H   0  0
   18.5701  -15.8040   -1.1824 H   0  0
   21.7779  -11.0550    1.2679 H   0  0
   24.4031  -14.8582    0.3185 H   0  0
   23.8674  -15.5620   -1.2265 H   0  0
   20.9524  -15.9455   -1.5470 H   0  0
   22.0216  -16.8410   -0.4405 H   0  0
   19.5031  -12.0151    0.8199 H   0  0
   20.1837  -13.0042    2.1343 H   0  0
   24.3147  -13.1612   -2.2736 H   0  0
   25.7615  -14.1025   -1.8376 H   0  0
   17.5147  -12.9805    1.0385 H   0  0
   17.4820  -13.6211   -0.6222 H   0  0
   20.0310  -17.1828    1.1347 H   0  0
   19.7707  -17.9327   -0.4588 H   0  0
   27.2251  -11.8133   -1.3631 H   0  0
   25.7879  -11.2693   -2.2619 H   0  0
   23.6722  -11.1655   -1.9458 H   0  0
   22.6487  -10.2923   -0.7798 H   0  0
   16.1282  -15.6569   -1.1893 H   0  0
   16.1724  -14.9847    1.8152 H   0  0
   15.2957  -14.0452    0.5831 H   0  0
   26.2469  -10.4278    0.5940 H   0  0
   26.9830   -9.5360   -0.7596 H   0  0
   22.0123  -14.6841   -2.4640 H   0  0
   22.8517  -13.1151   -2.4414 H   0  0
   21.1473  -13.2199   -1.9397 H   0  0
   21.1676  -15.8726    2.2263 H   0  0
   22.1148  -14.3674    2.2920 H   0  0
   22.8460  -15.8510    1.6351 H   0  0
   17.8809  -15.4476    2.6320 H   0  0
   18.8695  -13.9752    2.7791 H   0  0
   19.6555  -15.5561    2.5547 H   0  0
   14.7770  -17.4820   -0.5583 H   0  0
   25.2413   -7.8034    0.3555 H   0  0
   24.3820   -9.0703    1.2630 H   0  0
   23.4998   -8.0594    0.0937 H   0  0
   25.5565   -8.0352   -2.1136 H   0  0
   23.8267   -8.3792   -2.3515 H   0  0
   25.0522   -9.5185   -2.9578 H   0  0
   16.2564  -18.7019   -0.5936 H   0  0
   18.0337  -18.7814   -0.6378 H   0  0
   17.1578  -17.7838   -1.8232 H   0  0
   16.1353  -18.0497    1.6707 H   0  0
   17.0930  -16.7001    2.3251 H   0  0
   17.9030  -18.1993    1.8113 H   0  0
   28.6722  -13.2149    2.0339 H   0  0
   28.7605  -14.5971    0.9154 H   0  0
   30.0551  -13.0751   -0.7312 H   0  0
   30.1040  -11.8312    0.5415 H   0  0
   31.5042  -13.3782    1.9594 H   0  0
   31.5037  -14.5626    0.6302 H   0  0
   32.5560  -12.7777   -0.8786 H   0  0
   32.6781  -11.7100    0.5407 H   0  0
   34.1584  -13.4368    1.6609 H   0  0
   34.0990  -14.4110    0.1720 H   0  0
   35.1275  -12.4674   -1.0928 H   0  0
   35.2707  -11.5800    0.4439 H   0  0
   36.7307  -13.4543    1.3359 H   0  0
   36.6599  -14.2273   -0.2662 H   0  0
   37.6882  -12.1597   -1.2757 H   0  0
   37.8233  -11.4569    0.3544 H   0  0
   38.7013  -14.5397    1.2907 H   0  0
  2  1  1  0
  3  1  1  0
  4  7  1  0
  5 15  1  0
  6  2  1  0
  7  3  1  0
  8 17  1  0
  9  8  1  0
 10  2  2  0
  5 11  1  0
 12  1  1  0
 13  3  1  0
  7 14  1  0
 15 12  1  0
 16  4  1  0
 17 13  1  0
 18  5  1  0
  6 19  1  0
 20  9  1  0
 21 19  1  0
 22 16  1  0
 23 18  1  0
  1 24  1  0
  3 25  1  0
  4 26  1  0
 20 27  1  0
 28 21  1  0
 29 21  1  0
  5  6  1  0
 14 10  1  0
  8  4  1  0
 21 23  1  0
 20 22  1  0
  9 30  1  0
  9 31  1  0
 11 32  2  0
 11 33  1  0
 33 34  1  0
 34 35  1  0
 35 36  1  0
 36 37  1  0
 37 38  1  0
 38 39  1  0
 39 40  1  0
 40 41  1  0
 41 42  1  0
 42 43  1  0
 42 44  2  0
  6 45  1  0
  7 46  1  0
  8 47  1  0
 10 48  1  0
 12 49  1  0
 12 50  1  0
 13 51  1  0
 13 52  1  0
 14 53  1  0
 14 54  1  0
 15 55  1  0
 15 56  1  0
 16 57  1  0
 16 58  1  0
 17 59  1  0
 17 60  1  0
 18 61  1  0
 18 62  1  0
 19 63  1  0
 19 64  1  0
 20 65  1  0
 22 66  1  0
 22 67  1  0
 23 68  1  0
 23 69  1  0
 24 70  1  0
 24 71  1  0
 24 72  1  0
 25 73  1  0
 25 74  1  0
 25 75  1  0
 26 76  1  0
 26 77  1  0
 26 78  1  0
 27 79  1  0
 28 80  1  0
 28 81  1  0
 28 82  1  0
 29 83  1  0
 29 84  1  0
 29 85  1  0
 30 86  1  0
 30 87  1  0
 30 88  1  0
 31 89  1  0
 31 90  1  0
 31 91  1  0
 34 92  1  0
 34 93  1  0
 35 94  1  0
 35 95  1  0
 36 96  1  0
 36 97  1  0
 37 98  1  0
 37 99  1  0
 38100  1  0
 38101  1  0
 39102  1  0
 39103  1  0
 40104  1  0
 40105  1  0
 41106  1  0
 41107  1  0
 43108  1  0
M  END
> <Name>
Molecule

> <Clean Energy>
118.503

> <From>
www.bindingDB.org

> <BindingDB Reactant_set_id>
51186444

> <Ligand InChI>
InChI=1S/C39H64O5/c1-34(2)21-23-39(33(43)44-25-13-11-9-8-10-12-14-32(41)42)24-22-37(6)27(28(39)26-34)15-16-30-36(5)19-18-31(40)35(3,4)29(36)17-20-38(30,37)7/h15,28-31,40H,8-14,16-26H2,1-7H3,(H,41,42)/
t28-,29-,30+,31-,36-,37+,38+,39-/m0/s1

> <Ligand InChI Key>
HSWPKGWNSMQBRD-IRILJHRSSA-N

> <BindingDB MonomerID>
50487801

> <BindingDB Ligand Name>
CHEMBL2263119

> <Target Name>
Tyrosine-protein phosphatase non-receptor type 1

> <Target Source Organism According to Curator or DataSource>
Homo sapiens

> <IC50 (nM)>
780

> <Curation/DataSource>
ChEMBL

> <Article DOI>
10.1007/s00044-010-9529-5

> <BindingDB Entry DOI>
10.7270/Q2F76GFZ

> <Authors>
n/a

> <Institution>
n/a

> <Link to Ligand in BindingDB>
http://www.bindingdb.org/bind/chemsearch/marvin/MolStructure.jsp?monomerid=50487801

> <Link to Ligand-Target Pair in BindingDB>
http://www.bindingdb.org/jsp/dbsearch/PrimarySearch_ki.jsp?energyterm=kJ/mole&tag=pol&polymerid=2622&target=Tyrosine-protein+phosphatase+non-receptor+type+1&column=ki&startPg=0&Increment=50&submit=Sea
rch
http://www.bindingdb.org/jsp/dbsearch/PrimarySearch_ki.jsp?energyterm=kJ/mole&tag=r21&monomerid=50487801&enzyme=Tyrosine-protein+phosphatase+non-receptor+type+1&column=ki&startPg=0&Increment=50&submit
=Search

> <PubChem CID of Ligand>
76319510

> <PubChem SID of Ligand>
433955066

> <Number of Protein Chains in Target (bigger than 1 implies a multichain complex)>
1

> <BindingDB Target Chain Sequence>
MEMEKEFEQIDKSGSWAAIYQDIRHEASDFPCRVAKLPKNKNRNRYRDVSPFDHSRIKLHQEDNDYINASLIKMEEAQRSYILTQGPLPNTCGHFWEMVWEQKSRGVVMLNRVMEKGSLKCAQYWPQKEEKEMIFEDTNLKLTLISEDIKSYYTVRQLELENLTTQETREILHFHYTTWPDFGVPESPASFLNFLFKVRE
SGSLSPEHGPVVVHCSAGIGRSGTFCLADTCLLLMDKRKDPSSVDIKKVLLEMRKFRMGLIQTADQLRFSYLAVIEGAKFIMGDSSVQDQWKELSHEDLEPPPEHIPPPPRPPKRILEPHNGKCREFFPNHQWVKEETQEDKDCPIKEEKGSPLNAAPYGIESMSQDTEVRSRVVGGSLRGAQAASPAKGEPSLPEKDED
HALSYWKPFLVNMCVATVLTAGAYLCYRFLFNSNT

> <PDB ID(s) of Target Chain>
1BZJ,1G7G,1GFY,1JF7,1KAK,1KAV,1LQF,1NL9,1NNY,1NO6,1NZ7,1OEM,1OEO,1OES,1OET,1OEU,1OEV,1ONY,1ONZ,1PH0,1PXH,1PYN,1Q1M,1Q6J,1Q6M,1Q6N,1Q6P,1Q6S,1Q6T,1QXK,1SUG,1T48,1T49,1T4J,1WAX,1XBO,2AZR,2B07,2BGD,2BGE,
2CM2,2CM3,2CM7,2CM8,2CMA,2CMB,2CMC,2CNE,2CNF,2CNG,2CNH,2CNI,2F6T,2F6V,2F6W,2F6Y,2F6Z,2F70,2F71,2FJN,2H4G,2H4K,2HB1,2HNP,2HNQ,2QBP,2QBQ,2QBR,2QBS,2VEU,2VEV,2VEW,2VEX,2VEY,2ZMM,2ZN7,3A5J,3CWE,3D9C,3EAX,
3EB1,3EU0,3I7Z,3I80,3SME,4BJO,4I8N,4QBW,4Y14,5K9V,5K9W,5KA0,5KA1,5T19,6B90,6NTP,6W30,7KEY,7KLX,7LFO,7MN9,7MNA,8DU7,8G65,8G67,8G68,8G69,8G6A,8SKL

> <UniProt (SwissProt) Recommended Name of Target Chain>
Tyrosine-protein phosphatase non-receptor type 1

> <UniProt (SwissProt) Entry Name of Target Chain>
PTN1_HUMAN

> <UniProt (SwissProt) Primary ID of Target Chain>
P18031

> <UniProt (SwissProt) Secondary ID(s) of Target Chain>
Q5TGD8 Q9BQV9 Q9NQQ4

$$$$
Molecule
  SciTegic10242319433D

160168  0  0  0  0            999 V2000
   11.5208  -22.1067   -1.0984 C   0  0
   12.9103  -22.3825   -0.5117 C   0  0
   13.5356  -21.0065   -0.1974 C   0  0
    5.2985  -29.3905    1.4809 C   0  0
    5.2671  -28.8753    0.0112 C   0  0
    5.1179  -30.1325   -0.8687 C   0  0
    4.1545  -26.5737    0.4967 C   0  0
    4.0133  -27.9498   -0.2345 C   0  0  2  0  0  0
    5.4488  -25.7937   -0.0092 C   0  0
    6.6892  -26.5904    0.4433 C   0  0  1  0  0  0
    6.5771  -28.0397   -0.4234 C   0  0  1  0  0  0
    7.9514  -28.8786   -0.4972 C   0  0
    8.8392  -28.6300    0.6400 C   0  0
    8.1387  -26.0896    0.0491 C   0  0  2  0  0  0
    9.3340  -27.1038    0.7037 C   0  0  2  0  0  0
   10.0113  -24.3027    0.5513 C   0  0
    8.4881  -24.6409    0.5166 C   0  0
   11.0119  -25.1753    0.2903 C   0  0
   10.6731  -26.6604   -0.0909 C   0  0  1  0  0  0
   11.8757  -27.4822    0.2807 C   0  0
   13.1779  -27.0180   -0.4822 C   0  0
   12.5832  -24.7996    0.6342 C   0  0  1  0  0  0
   13.5261  -25.4631   -0.4405 C   0  0  2  0  0  0
   13.2421  -24.6254   -1.7737 C   0  0
   13.7356  -23.1134   -1.5744 C   0  0
   12.9607  -23.2623    0.8012 C   0  0
    9.7013  -26.9864    2.2480 C   0  0
    6.5917  -26.5407    2.0155 C   0  0
    2.8280  -28.6983    0.2141 O   0  0
   10.5113  -26.8328   -1.6478 C   0  0
   15.0815  -25.4702   -0.2258 C   0  0
   15.6441  -26.6326    0.3757 O   0  0
   15.8129  -24.7501   -0.9057 O   0  0
   12.7882  -25.2936    1.5961 H   0  0
    8.1416  -26.1516   -1.0442 H   0  0
    6.4494  -27.7779   -1.4837 H   0  0
   17.0647  -26.8816    0.0179 C   0  0  2  0  0  0
   17.3812  -28.2016    0.5173 O   0  0
   18.6257  -28.7025   -0.0003 C   0  0  1  0  0  0
   19.7698  -27.7916    0.4572 C   0  0  2  0  0  0
   19.5116  -26.3741   -0.0258 C   0  0  1  0  0  0
   18.1605  -25.8843    0.5445 C   0  0  1  0  0  0
   20.5689  -25.5216    0.4135 O   0  0
   18.9325  -30.1260    0.5601 C   0  0
   17.9797  -31.2318    0.3059 N   0  0
   17.9500  -24.5533    0.0870 O   0  0
   21.0084  -28.2727   -0.0745 O   0  0
   16.6476  -31.1460    0.1521 C   0  0
   15.8017  -32.3504   -0.0069 C   0  0
   16.0643  -30.0687    0.1980 O   0  0
   14.4858  -32.1147   -0.0823 C   0  0
   13.5297  -33.2035   -0.2074 C   0  0
   13.9505  -34.4626   -0.2398 C   0  0
   15.3781  -34.7618   -0.1586 C   0  0
   16.2807  -33.7934   -0.0508 C   0  0
   17.7051  -34.2250    0.0180 C   0  0
   17.9847  -35.5879   -0.0149 O   0  0
   18.6401  -33.4322    0.0905 O   0  0
    1.5143  -28.1632   -0.1639 C   0  0  2  0  0  0
    1.1432  -26.8730    0.4346 O   0  0
   -0.1568  -26.4223   -0.1084 C   0  0  1  0  0  0
   -1.3449  -27.3944    0.2600 C   0  0  2  0  0  0
   -0.8611  -28.7939   -0.2532 C   0  0  1  0  0  0
    0.4883  -29.1989    0.2805 C   0  0  1  0  0  0
    1.4915  -28.0820   -1.2594 H   0  0
    0.8206  -30.4625   -0.2940 O   0  0
   -2.6030  -26.8645   -0.5183 O   0  0
   -1.7304  -29.8272    0.1263 O   0  0
   -0.4751  -25.0196    0.4421 C   0  0
    0.5958  -24.1275    0.1205 O   0  0
   -4.0970  -27.3249   -0.5364 C   0  0  2  0  0  0
   -4.9565  -26.5296    0.3434 O   0  0
   -6.3977  -26.8783    0.0847 C   0  0  1  0  0  0
   -6.6598  -28.3358    0.4672 C   0  0  2  0  0  0
   -5.7937  -29.1771   -0.4242 C   0  0  1  0  0  0
   -4.3441  -28.8230   -0.2504 C   0  0  1  0  0  0
   -4.4500  -27.1081   -1.5525 H   0  0
   -3.6419  -29.6249   -1.1849 O   0  0
   -5.9790  -30.5624   -0.1291 O   0  0
   -8.0278  -28.6796    0.2250 O   0  0
   -7.3519  -25.9826    0.8906 C   0  0
   -7.2060  -24.6278    0.4632 O   0  0
   11.0335  -23.0515   -1.3391 H   0  0
   11.6205  -21.5088   -2.0044 H   0  0
   10.9193  -21.5636   -0.3695 H   0  0
   14.5306  -21.1469    0.2247 H   0  0
   12.9085  -20.4773    0.5201 H   0  0
   13.6097  -20.4225   -1.1148 H   0  0
    5.4033  -28.5450    2.1607 H   0  0
    6.1428  -30.0676    1.6111 H   0  0
    4.3715  -29.9201    1.7007 H   0  0
    5.0890  -29.8406   -1.9184 H   0  0
    4.1938  -30.6498   -0.6105 H   0  0
    5.9651  -30.7973   -0.7001 H   0  0
    3.2708  -25.9689    0.2933 H   0  0
    4.2382  -26.7463    1.5696 H   0  0
    3.9226  -27.7659   -1.3050 H   0  0
    5.4339  -25.7177   -1.0965 H   0  0
    5.4720  -24.7942    0.4250 H   0  0
    7.7081  -29.9409   -0.5212 H   0  0
    8.4758  -28.6047   -1.4127 H   0  0
    8.3039  -28.8637    1.5602 H   0  0
    9.7114  -29.2778    0.5519 H   0  0
   10.2918  -23.2808    0.8065 H   0  0
    8.0029  -23.9410   -0.1637 H   0  0
    8.0899  -24.5060    1.5223 H   0  0
   12.0460  -27.3889    1.3533 H   0  0
   11.6775  -28.5250    0.0331 H   0  0
   14.0216  -27.5554   -0.0493 H   0  0
   13.0644  -27.3013   -1.5286 H   0  0
   13.7814  -25.0760   -2.6068 H   0  0
   12.1730  -24.6328   -1.9857 H   0  0
   14.7810  -23.1212   -1.2656 H   0  0
   13.6400  -22.5832   -2.5219 H   0  0
   12.2671  -22.8262    1.5200 H   0  0
   13.9750  -23.2105    1.1968 H   0  0
   10.0637  -25.9807    2.4603 H   0  0
   10.4776  -27.7112    2.4934 H   0  0
    8.8144  -27.1869    2.8492 H   0  0
    7.4325  -27.0818    2.4494 H   0  0
    5.6582  -27.0028    2.3369 H   0  0
    6.6168  -25.5033    2.3490 H   0  0
   11.4308  -26.5249   -2.1455 H   0  0
    9.6846  -26.2149   -1.9983 H   0  0
   10.3063  -27.8782   -1.8787 H   0  0
   17.1348  -26.9106   -1.0694 H   0  0
   18.5889  -28.7328   -1.0892 H   0  0
   19.8199  -27.7967    1.5461 H   0  0
   19.4689  -26.3654   -1.1150 H   0  0
   18.1879  -25.9031    1.6340 H   0  0
   20.6136  -25.5308    1.4625 H   0  0
   19.8913  -30.4314    0.1412 H   0  0
   19.0226  -30.0279    1.6419 H   0  0
   18.4015  -32.2127    0.2367 H   0  0
   17.9744  -24.5355   -0.9626 H   0  0
   21.1816  -29.2495    0.2696 H   0  0
   14.1241  -31.0870   -0.0491 H   0  0
   12.4640  -32.9853   -0.2749 H   0  0
   13.2290  -35.2749   -0.3272 H   0  0
   15.7090  -35.8000   -0.1870 H   0  0
   18.5809  -35.8032   -0.8520 H   0  0
   -0.0794  -26.3618   -1.1940 H   0  0
   -1.5236  -27.4088    1.3352 H   0  0
   -0.8097  -28.7657   -1.3416 H   0  0
    0.4633  -29.2689    1.3679 H   0  0
    0.8123  -30.3845   -1.3411 H   0  0
   -1.7908  -29.8675    1.1738 H   0  0
   -1.3991  -24.6545   -0.0060 H   0  0
   -0.5915  -25.0720    1.5246 H   0  0
    1.4863  -24.4789    0.5518 H   0  0
   -6.6063  -26.7497   -0.9774 H   0  0
   -6.4053  -28.5052    1.5134 H   0  0
   -6.0775  -28.9976   -1.4612 H   0  0
   -4.0219  -29.0653    0.7623 H   0  0
   -3.9732  -29.4027   -2.1562 H   0  0
   -5.7205  -30.7451    0.8721 H   0  0
   -8.6518  -28.0595    0.7982 H   0  0
   -8.3797  -26.3066    0.7270 H   0  0
   -7.1114  -26.0570    1.9512 H   0  0
   -6.2159  -24.3154    0.6204 H   0  0
  2  1  1  0
  3  2  1  0
  5  4  1  0
  6  5  1  0
  7  8  1  0
  7  9  1  0
  8  5  1  0
  5 11  1  0
 10  9  1  0
 10 11  1  0
 10 14  1  0
 11 12  1  0
 12 13  1  0
 13 15  1  0
 14 15  1  0
 14 17  1  0
 15 19  1  0
 18 16  2  0
 16 17  1  0
 18 19  1  0
 18 22  1  0
 19 20  1  0
 20 21  1  0
 21 23  1  0
 22 23  1  0
 22 26  1  0
 23 24  1  0
 24 25  1  0
 25  2  1  0
  2 26  1  0
 15 27  1  0
 10 28  1  0
  8 29  1  0
 19 30  1  0
 23 31  1  0
 31 32  1  0
 31 33  2  0
 22 34  1  0
 14 35  1  0
 11 36  1  0
 37 32  1  0
 37 38  1  0
 37 42  1  0
 38 39  1  0
 39 40  1  0
 40 41  1  0
 41 42  1  0
 41 43  1  0
 39 44  1  0
 44 45  1  0
 42 46  1  0
 40 47  1  0
 45 48  1  0
 48 49  1  0
 48 50  2  0
 49 51  2  0
 51 52  1  0
 52 53  2  0
 53 54  1  0
 54 55  2  0
 55 49  1  0
 56 57  1  0
 56 58  2  0
 55 56  1  0
 29 59  1  0
 59 60  1  0
 59 64  1  0
 60 61  1  0
 61 62  1  0
 62 63  1  0
 63 64  1  0
 59 65  1  0
 64 66  1  0
 62 67  1  0
 63 68  1  0
 61 69  1  0
 69 70  1  0
 67 71  1  0
 71 72  1  0
 71 76  1  0
 72 73  1  0
 73 74  1  0
 74 75  1  0
 75 76  1  0
 71 77  1  0
 76 78  1  0
 75 79  1  0
 74 80  1  0
 73 81  1  0
 81 82  1  0
  1 83  1  0
  1 84  1  0
  1 85  1  0
  3 86  1  0
  3 87  1  0
  3 88  1  0
  4 89  1  0
  4 90  1  0
  4 91  1  0
  6 92  1  0
  6 93  1  0
  6 94  1  0
  7 95  1  0
  7 96  1  0
  8 97  1  0
  9 98  1  0
  9 99  1  0
 12100  1  0
 12101  1  0
 13102  1  0
 13103  1  0
 16104  1  0
 17105  1  0
 17106  1  0
 20107  1  0
 20108  1  0
 21109  1  0
 21110  1  0
 24111  1  0
 24112  1  0
 25113  1  0
 25114  1  0
 26115  1  0
 26116  1  0
 27117  1  0
 27118  1  0
 27119  1  0
 28120  1  0
 28121  1  0
 28122  1  0
 30123  1  0
 30124  1  0
 30125  1  0
 37126  1  0
 39127  1  0
 40128  1  0
 41129  1  0
 42130  1  0
 43131  1  0
 44132  1  0
 44133  1  0
 45134  1  0
 46135  1  0
 47136  1  0
 51137  1  0
 52138  1  0
 53139  1  0
 54140  1  0
 57141  1  0
 61142  1  0
 62143  1  0
 63144  1  0
 64145  1  0
 66146  1  0
 68147  1  0
 69148  1  0
 69149  1  0
 70150  1  0
 73151  1  0
 74152  1  0
 75153  1  0
 76154  1  0
 78155  1  0
 79156  1  0
 80157  1  0
 81158  1  0
 81159  1  0
 82160  1  0
M  END
> <Name>
Molecule

> <Clean Energy>
208.707

> <From>
www.bindingDB.org

> <BindingDB Reactant_set_id>
50082812

> <Ligand InChI>
InChI=1S/C56H83NO20/c1-51(2)18-20-56(50(71)77-49-42(66)38(62)36(60)30(72-49)23-57-45(68)26-10-8-9-11-27(26)46(69)70)21-19-54(6)28(29(56)22-51)12-13-34-53(5)16-15-35(52(3,4)33(53)14-17-55(34,54)7)75-47
-43(67)40(64)44(32(25-59)74-47)76-48-41(65)39(63)37(61)31(24-58)73-48/h8-12,29-44,47-49,58-67H,13-25H2,1-7H3,(H,57,68)(H,69,70)/t29-,30+,31+,32+,33-,34+,35-,36+,37+,38-,39-,40+,41+,42+,43+,44+,47-,48-
,49-,53-,54+,55+,56-/m0/s1

> <Ligand InChI Key>
SVKZWUMSTGLSSF-LKSQQIRDSA-N

> <BindingDB MonomerID>
50005621

> <BindingDB Ligand Name>
CHEMBL3234649

> <Target Name>
Tyrosine-protein phosphatase non-receptor type 1

> <Target Source Organism According to Curator or DataSource>
Homo sapiens

> <IC50 (nM)>
780

> <Curation/DataSource>
ChEMBL

> <Article DOI>
10.1016/j.ejmech.2014.03.080

> <BindingDB Entry DOI>
10.7270/Q2H133J5

> <PMID>
24721313

> <Authors>
Liu, Q; Guo, T; Li, D; Li, F; Li, W

> <Institution>
North-West University

> <Link to Ligand in BindingDB>
http://www.bindingdb.org/bind/chemsearch/marvin/MolStructure.jsp?monomerid=50005621

> <Link to Ligand-Target Pair in BindingDB>
http://www.bindingdb.org/jsp/dbsearch/PrimarySearch_ki.jsp?energyterm=kJ/mole&tag=pol&polymerid=2622&target=Tyrosine-protein+phosphatase+non-receptor+type+1&column=ki&startPg=0&Increment=50&submit=Sea
rch
http://www.bindingdb.org/jsp/dbsearch/PrimarySearch_ki.jsp?energyterm=kJ/mole&tag=r21&monomerid=50005621&enzyme=Tyrosine-protein+phosphatase+non-receptor+type+1&column=ki&startPg=0&Increment=50&submit
=Search

> <PubChem CID of Ligand>
90654923

> <PubChem SID of Ligand>
103919096

> <ChEMBL ID of Ligand>
CHEMBL3234649

> <KEGG ID of Ligand>
C03400

> <ZINC ID of Ligand>
ZINC28022773

> <Number of Protein Chains in Target (bigger than 1 implies a multichain complex)>
1

> <BindingDB Target Chain Sequence>
MEMEKEFEQIDKSGSWAAIYQDIRHEASDFPCRVAKLPKNKNRNRYRDVSPFDHSRIKLHQEDNDYINASLIKMEEAQRSYILTQGPLPNTCGHFWEMVWEQKSRGVVMLNRVMEKGSLKCAQYWPQKEEKEMIFEDTNLKLTLISEDIKSYYTVRQLELENLTTQETREILHFHYTTWPDFGVPESPASFLNFLFKVRE
SGSLSPEHGPVVVHCSAGIGRSGTFCLADTCLLLMDKRKDPSSVDIKKVLLEMRKFRMGLIQTADQLRFSYLAVIEGAKFIMGDSSVQDQWKELSHEDLEPPPEHIPPPPRPPKRILEPHNGKCREFFPNHQWVKEETQEDKDCPIKEEKGSPLNAAPYGIESMSQDTEVRSRVVGGSLRGAQAASPAKGEPSLPEKDED
HALSYWKPFLVNMCVATVLTAGAYLCYRFLFNSNT

> <PDB ID(s) of Target Chain>
1BZJ,1G7G,1GFY,1JF7,1KAK,1KAV,1LQF,1NL9,1NNY,1NO6,1NZ7,1OEM,1OEO,1OES,1OET,1OEU,1OEV,1ONY,1ONZ,1PH0,1PXH,1PYN,1Q1M,1Q6J,1Q6M,1Q6N,1Q6P,1Q6S,1Q6T,1QXK,1SUG,1T48,1T49,1T4J,1WAX,1XBO,2AZR,2B07,2BGD,2BGE,
2CM2,2CM3,2CM7,2CM8,2CMA,2CMB,2CMC,2CNE,2CNF,2CNG,2CNH,2CNI,2F6T,2F6V,2F6W,2F6Y,2F6Z,2F70,2F71,2FJN,2H4G,2H4K,2HB1,2HNP,2HNQ,2QBP,2QBQ,2QBR,2QBS,2VEU,2VEV,2VEW,2VEX,2VEY,2ZMM,2ZN7,3A5J,3CWE,3D9C,3EAX,
3EB1,3EU0,3I7Z,3I80,3SME,4BJO,4I8N,4QBW,4Y14,5K9V,5K9W,5KA0,5KA1,5T19,6B90,6NTP,6W30,7KEY,7KLX,7LFO,7MN9,7MNA,8DU7,8G65,8G67,8G68,8G69,8G6A,8SKL

> <UniProt (SwissProt) Recommended Name of Target Chain>
Tyrosine-protein phosphatase non-receptor type 1

> <UniProt (SwissProt) Entry Name of Target Chain>
PTN1_HUMAN

> <UniProt (SwissProt) Primary ID of Target Chain>
P18031

> <UniProt (SwissProt) Secondary ID(s) of Target Chain>
Q5TGD8 Q9BQV9 Q9NQQ4

$$$$
Molecule
  SciTegic10242319433D

105109  0  0  0  0            999 V2000
    8.6284  -12.1877    0.9631 C   0  0
   -1.2889  -15.3738   -0.1268 C   0  0  1  0  0  0
   -2.5065  -16.0943    0.0956 O   0  0
   -1.2587  -14.0705    0.7514 C   0  0
    0.0366  -13.2405    0.4103 C   0  0
   -0.0857  -16.2973    0.2254 C   0  0
    1.2397  -15.4265   -0.0772 C   0  0  2  0  0  0
    2.5594  -16.2610    0.1823 C   0  0
    3.8027  -15.4436   -0.3876 C   0  0
    4.0035  -14.1018    0.3738 C   0  0  1  0  0  0
    4.4905  -14.4173    1.8245 C   0  0
    5.1314  -13.1867   -0.3718 C   0  0  2  0  0  0
    4.7280  -12.9930   -1.8705 C   0  0
    6.5676  -13.7860   -0.4707 C   0  0
    7.5250  -12.7404   -1.2295 C   0  0
    7.8011  -11.5789   -0.2402 C   0  0  2  0  0  0
    8.7396  -10.5040   -0.9592 C   0  0
    8.5601   -9.2353   -0.2374 C   0  0
    7.1838   -8.6987   -0.7915 C   0  0
    6.1223   -9.9024   -0.9759 C   0  0
    6.3877  -10.8661    0.1561 C   0  0  1  0  0  0
    5.1658  -11.7791    0.3034 C   0  0
    4.0922  -11.2508    0.8717 C   0  0
    2.7548  -11.9733    1.0682 C   0  0
    2.6105  -13.2939    0.2465 C   0  0  2  0  0  0
    1.3120  -14.0561    0.7690 C   0  0  1  0  0  0
    1.3417  -14.1986    2.3223 C   0  0
   -0.1073  -17.5272   -0.7014 C   0  0
   -0.2517  -16.8460    1.6721 C   0  0
    7.3508   -8.0332   -2.1666 C   0  0
    6.6906   -7.6286    0.2160 C   0  0
   10.0236  -12.5609    0.2697 C   0  0
   11.2635  -12.8148    1.1859 C   0  0
   12.5234  -12.5371    0.2680 C   0  0
   13.9086  -12.7912    0.9485 C   0  0
   15.0441  -12.2405    0.0104 C   0  0
   16.4669  -12.6249    0.5218 C   0  0
   17.5536  -11.9148   -0.3422 C   0  0
   18.9388  -12.4116    0.0174 C   0  0
   19.0892  -13.5612    0.7857 O   0  0
   19.9409  -11.8275   -0.4154 O   0  0
    8.7669  -11.4539    1.7571 H   0  0
    8.1402  -13.0742    1.3681 H   0  0
   -1.2274  -15.0953   -1.1789 H   0  0
   -2.5754  -16.3620    1.1085 H   0  0
   -2.1425  -13.4687    0.5396 H   0  0
   -1.2485  -14.3432    1.8067 H   0  0
    0.0303  -12.3132    0.9832 H   0  0
    0.0454  -13.0101   -0.6550 H   0  0
    1.2227  -15.1593   -1.1338 H   0  0
    2.6864  -16.4222    1.2528 H   0  0
    2.4901  -17.2234   -0.3248 H   0  0
    4.7028  -16.0490   -0.2807 H   0  0
    3.6314  -15.2293   -1.4425 H   0  0
    5.4339  -14.9615    1.7814 H   0  0
    3.7437  -15.0258    2.3347 H   0  0
    4.6340  -13.4851    2.3710 H   0  0
    4.6963  -13.9628   -2.3670 H   0  0
    5.4611  -12.3559   -2.3652 H   0  0
    3.7450  -12.5251   -1.9251 H   0  0
    6.9542  -13.9736    0.5311 H   0  0
    6.5346  -14.7216   -1.0290 H   0  0
    8.4608  -13.2244   -1.5090 H   0  0
    7.0304  -12.3609   -2.1237 H   0  0
    9.7812  -10.8210   -0.9079 H   0  0
    8.4457  -10.3872   -2.0024 H   0  0
    8.5103   -9.4013    0.8388 H   0  0
    9.3694   -8.5402   -0.4612 H   0  0
    5.1029   -9.5209   -0.9176 H   0  0
    6.2718  -10.3956   -1.9364 H   0  0
    6.5218  -10.3013    1.0786 H   0  0
    4.1656  -10.2230    1.2271 H   0  0
    2.6504  -12.2162    2.1257 H   0  0
    1.9543  -11.2964    0.7696 H   0  0
    2.4584  -13.0328   -0.8008 H   0  0
    0.4460  -14.7217    2.6569 H   0  0
    1.3753  -13.2089    2.7779 H   0  0
    2.2246  -14.7648    2.6189 H   0  0
    0.0057  -17.2048   -1.7365 H   0  0
   -1.0553  -18.0527   -0.5866 H   0  0
    0.7124  -18.1956   -0.4380 H   0  0
   -0.2440  -16.0164    2.3790 H   0  0
    0.5702  -17.5247    1.9004 H   0  0
   -1.1976  -17.3818    1.7518 H   0  0
    6.3829   -7.6755   -2.5176 H   0  0
    7.7485   -8.7588   -2.8761 H   0  0
    8.0396   -7.1926   -2.0826 H   0  0
    5.7369   -7.2231   -0.1216 H   0  0
    7.4240   -6.8248    0.2811 H   0  0
    6.5637   -8.0845    1.1980 H   0  0
    9.8618  -13.4682   -0.3123 H   0  0
   10.2804  -11.7400   -0.3999 H   0  0
   11.2544  -12.1350    2.0379 H   0  0
   11.2703  -13.8449    1.5424 H   0  0
   12.4532  -13.1840   -0.6064 H   0  0
   12.4883  -11.4943   -0.0470 H   0  0
   13.9448  -12.2759    1.9083 H   0  0
   14.0491  -13.8608    1.1042 H   0  0
   14.9062  -12.6546   -0.9884 H   0  0
   14.9680  -11.1540   -0.0326 H   0  0
   16.5727  -12.3147    1.5614 H   0  0
   16.5969  -13.7047    0.4494 H   0  0
   17.3628  -12.1207   -1.3954 H   0  0
   17.5031  -10.8402   -0.1666 H   0  0
   18.6204  -13.4252    1.7154 H   0  0
 16  1  1  0
 16 17  1  0
 17 18  1  0
 18 19  1  0
 19 20  1  0
 21 20  1  0
 16 21  1  0
 21 22  1  0
 12 22  1  0
 22 23  2  0
 23 24  1  0
 25 24  1  0
 10 25  1  0
 25 26  1  0
 26  5  1  0
 26  7  1  0
 26 27  1  0
  2  3  1  0
  6 28  1  0
  2  4  1  0
  6 29  1  0
  4  5  1  0
 19 30  1  0
  2  6  1  0
 19 31  1  0
  7  6  1  0
  1 32  1  0
  7  8  1  0
 32 33  1  0
  8  9  1  0
 33 34  1  0
 10  9  1  0
 34 35  1  0
 10 11  1  0
 35 36  1  0
 10 12  1  0
 36 37  1  0
 12 13  1  0
 37 38  1  0
 12 14  1  0
 38 39  1  0
 14 15  1  0
 16 15  1  0
 39 40  1  0
 39 41  2  0
  1 42  1  0
  1 43  1  0
  2 44  1  0
  3 45  1  0
  4 46  1  0
  4 47  1  0
  5 48  1  0
  5 49  1  0
  7 50  1  0
  8 51  1  0
  8 52  1  0
  9 53  1  0
  9 54  1  0
 11 55  1  0
 11 56  1  0
 11 57  1  0
 13 58  1  0
 13 59  1  0
 13 60  1  0
 14 61  1  0
 14 62  1  0
 15 63  1  0
 15 64  1  0
 17 65  1  0
 17 66  1  0
 18 67  1  0
 18 68  1  0
 20 69  1  0
 20 70  1  0
 21 71  1  0
 23 72  1  0
 24 73  1  0
 24 74  1  0
 25 75  1  0
 27 76  1  0
 27 77  1  0
 27 78  1  0
 28 79  1  0
 28 80  1  0
 28 81  1  0
 29 82  1  0
 29 83  1  0
 29 84  1  0
 30 85  1  0
 30 86  1  0
 30 87  1  0
 31 88  1  0
 31 89  1  0
 31 90  1  0
 32 91  1  0
 32 92  1  0
 33 93  1  0
 33 94  1  0
 34 95  1  0
 34 96  1  0
 35 97  1  0
 35 98  1  0
 36 99  1  0
 36100  1  0
 37101  1  0
 37102  1  0
 38103  1  0
 38104  1  0
 40105  1  0
M  END
> <Name>
Molecule

> <Clean Energy>
103.119

> <From>
www.bindingDB.org

> <BindingDB Reactant_set_id>
50428474

> <Ligand InChI>
InChI=1S/C38H64O3/c1-33(2)22-24-38(19-13-11-9-8-10-12-14-32(40)41)25-23-36(6)27(28(38)26-33)15-16-30-35(5)20-18-31(39)34(3,4)29(35)17-21-37(30,36)7/h15,28-31,39H,8-14,16-26H2,1-7H3,(H,40,41)/t28-,29-,
30+,31-,35-,36+,37+,38+/m0/s1

> <Ligand InChI Key>
CGPCBBNHHLXUTM-KNVKMGHGSA-N

> <BindingDB MonomerID>
50246623

> <BindingDB Ligand Name>
9-((4aR,6aS,6bR,8aR,10S,12aR,12bR,14bR)-10-hydroxy-2,2,6a,6b,9,9,12a-heptamethyl-1,2,3,4,4a,5,6,6a,6b,7,8,8a,9,10,11,12,12a,12b,13,14b-icosahydropicen-4a-yl)nonanoic acid::CHEMBL445491

> <Target Name>
Tyrosine-protein phosphatase non-receptor type 1

> <Target Source Organism According to Curator or DataSource>
Homo sapiens

> <IC50 (nM)>
780

> <Curation/DataSource>
ChEMBL

> <Article DOI>
10.1016/j.bmc.2008.07.080

> <BindingDB Entry DOI>
10.7270/Q2HX1CH7

> <PMID>
18707891

> <Authors>
Zhang, YN; Zhang, W; Hong, D; Shi, L; Shen, Q; Li, JY; Li, J; Hu, LH

> <Institution>
Chinese Academy of Sciences

> <Link to Ligand in BindingDB>
http://www.bindingdb.org/bind/chemsearch/marvin/MolStructure.jsp?monomerid=50246623

> <Link to Ligand-Target Pair in BindingDB>
http://www.bindingdb.org/jsp/dbsearch/PrimarySearch_ki.jsp?energyterm=kJ/mole&tag=pol&polymerid=2622&target=Tyrosine-protein+phosphatase+non-receptor+type+1&column=ki&startPg=0&Increment=50&submit=Sea
rch
http://www.bindingdb.org/jsp/dbsearch/PrimarySearch_ki.jsp?energyterm=kJ/mole&tag=r21&monomerid=50246623&enzyme=Tyrosine-protein+phosphatase+non-receptor+type+1&column=ki&startPg=0&Increment=50&submit
=Search

> <PubChem CID of Ligand>
44563347

> <PubChem SID of Ligand>
104102011

> <ChEMBL ID of Ligand>
CHEMBL445491

> <ZINC ID of Ligand>
ZINC44305972

> <Number of Protein Chains in Target (bigger than 1 implies a multichain complex)>
1

> <BindingDB Target Chain Sequence>
MEMEKEFEQIDKSGSWAAIYQDIRHEASDFPCRVAKLPKNKNRNRYRDVSPFDHSRIKLHQEDNDYINASLIKMEEAQRSYILTQGPLPNTCGHFWEMVWEQKSRGVVMLNRVMEKGSLKCAQYWPQKEEKEMIFEDTNLKLTLISEDIKSYYTVRQLELENLTTQETREILHFHYTTWPDFGVPESPASFLNFLFKVRE
SGSLSPEHGPVVVHCSAGIGRSGTFCLADTCLLLMDKRKDPSSVDIKKVLLEMRKFRMGLIQTADQLRFSYLAVIEGAKFIMGDSSVQDQWKELSHEDLEPPPEHIPPPPRPPKRILEPHNGKCREFFPNHQWVKEETQEDKDCPIKEEKGSPLNAAPYGIESMSQDTEVRSRVVGGSLRGAQAASPAKGEPSLPEKDED
HALSYWKPFLVNMCVATVLTAGAYLCYRFLFNSNT

> <PDB ID(s) of Target Chain>
1BZJ,1G7G,1GFY,1JF7,1KAK,1KAV,1LQF,1NL9,1NNY,1NO6,1NZ7,1OEM,1OEO,1OES,1OET,1OEU,1OEV,1ONY,1ONZ,1PH0,1PXH,1PYN,1Q1M,1Q6J,1Q6M,1Q6N,1Q6P,1Q6S,1Q6T,1QXK,1SUG,1T48,1T49,1T4J,1WAX,1XBO,2AZR,2B07,2BGD,2BGE,
2CM2,2CM3,2CM7,2CM8,2CMA,2CMB,2CMC,2CNE,2CNF,2CNG,2CNH,2CNI,2F6T,2F6V,2F6W,2F6Y,2F6Z,2F70,2F71,2FJN,2H4G,2H4K,2HB1,2HNP,2HNQ,2QBP,2QBQ,2QBR,2QBS,2VEU,2VEV,2VEW,2VEX,2VEY,2ZMM,2ZN7,3A5J,3CWE,3D9C,3EAX,
3EB1,3EU0,3I7Z,3I80,3SME,4BJO,4I8N,4QBW,4Y14,5K9V,5K9W,5KA0,5KA1,5T19,6B90,6NTP,6W30,7KEY,7KLX,7LFO,7MN9,7MNA,8DU7,8G65,8G67,8G68,8G69,8G6A,8SKL

> <UniProt (SwissProt) Recommended Name of Target Chain>
Tyrosine-protein phosphatase non-receptor type 1

> <UniProt (SwissProt) Entry Name of Target Chain>
PTN1_HUMAN

> <UniProt (SwissProt) Primary ID of Target Chain>
P18031

> <UniProt (SwissProt) Secondary ID(s) of Target Chain>
Q5TGD8 Q9BQV9 Q9NQQ4

$$$$
Molecule
  SciTegic10242319433D

 99104  0  0  0  0            999 V2000
   23.2730  -23.8369   -1.2376 O   0  0
   22.8335  -24.6130   -0.0103 S   0  0
   23.3400  -23.8766    1.2159 O   0  0
   -2.0193  -24.1764   -1.3155 O   0  0
   -1.5596  -24.6955    0.0338 S   0  0
   -2.0493  -23.7285    1.0962 O   0  0
   10.0120  -23.0840   -0.0057 C   0  0
   11.4120  -23.0679   -0.0016 C   0  0
   12.1452  -21.8782   -0.0005 C   0  0
   11.4276  -20.6604   -0.0046 C   0  0
   10.0174  -20.6978   -0.0077 C   0  0
    9.2822  -21.8971   -0.0082 C   0  0
    7.6316  -21.9016   -0.0073 C   0  0
    6.9493  -23.2771   -0.0301 O   0  0
    5.4164  -23.3434   -0.0034 C   0  0
   13.7723  -21.9431    0.0056 C   0  0
   14.3944  -23.3090    0.0534 O   0  0
   15.8996  -23.3509    0.0472 C   0  0
    4.6024  -22.2111    0.0470 C   0  0
    3.2054  -22.3283    0.0688 C   0  0
    2.5674  -23.5705    0.0428 C   0  0
    3.3735  -24.7058   -0.0072 C   0  0
    4.7706  -24.5861   -0.0291 C   0  0
   16.5625  -24.5812    0.0895 C   0  0
   17.9595  -24.6687    0.0804 C   0  0
   18.7382  -23.5153    0.0288 C   0  0
   18.0817  -22.2844   -0.0115 C   0  0
   16.6844  -22.1988   -0.0025 C   0  0
   12.1689  -19.2626   -0.0037 C   0  0
   13.4016  -19.2229   -0.0017 O   0  0
    1.0152  -23.6418    0.0571 C   0  0
    0.2790  -24.7755    0.0502 C   0  0
   -2.3113  -26.2244    0.2787 O   0  0
   -3.7514  -26.0625    0.1782 C   0  0
   -4.4704  -27.4280    0.2896 C   0  0
   20.2746  -23.5638    0.0075 C   0  0
   21.0074  -24.6952    0.0329 C   0  0
   23.5688  -26.1652   -0.0570 O   0  0
   25.0083  -26.0050   -0.1054 C   0  0
   25.7108  -27.3815   -0.1571 C   0  0
   11.4889  -18.0779   -0.0045 N   0  0
   12.1308  -16.7199   -0.0031 C   0  0
   13.5129  -16.5337   -0.0018 C   0  0
   14.0717  -15.2549   -0.0005 C   0  0
   13.2768  -14.1103   -0.0003 C   0  0
   11.8945  -14.2977   -0.0015 C   0  0
   11.3326  -15.5769   -0.0028 C   0  0
   13.9785  -12.7916    0.0007 O   0  0
   13.3112  -11.4697    0.0006 C   0  0
   14.1253  -10.3318    0.0009 C   0  0
   11.3773  -10.0067   -0.0001 C   0  0
   11.9309  -11.2810    0.0002 C   0  0
   12.2002   -8.8831    0.0001 C   0  0
   13.5791   -9.0533    0.0005 C   0  0
   14.4061   -7.9285    0.0007 C   0  0
   13.8528   -6.6534    0.0003 C   0  0
   12.4717   -6.4913   -0.0002 C   0  0
   11.6451   -7.6117   -0.0003 C   0  0
    9.4856  -24.0384   -0.0069 H   0  0
   11.9489  -24.0165    0.0008 H   0  0
    9.4723  -19.7539   -0.0098 H   0  0
    7.2998  -21.3825    0.8918 H   0  0
    7.2988  -21.3525   -0.8882 H   0  0
   14.1254  -21.4515   -0.9009 H   0  0
   14.1211  -21.3911    0.8783 H   0  0
    5.0591  -21.2216    0.0696 H   0  0
    2.5993  -21.4232    0.1072 H   0  0
    2.9149  -25.6943   -0.0295 H   0  0
    5.3753  -25.4922   -0.0675 H   0  0
   15.9747  -25.4982    0.1307 H   0  0
   18.4410  -25.6460    0.1140 H   0  0
   18.6707  -21.3682   -0.0510 H   0  0
   16.2043  -21.2207   -0.0345 H   0  0
    0.4733  -22.6962    0.0741 H   0  0
    0.7781  -25.7444    0.0544 H   0  0
   -4.0942  -25.4123    0.9831 H   0  0
   -3.9931  -25.6096   -0.7833 H   0  0
   -5.5474  -27.2796    0.2114 H   0  0
   -4.2361  -27.8852    1.2510 H   0  0
   -4.1350  -28.0825   -0.5149 H   0  0
   20.8100  -22.6151   -0.0308 H   0  0
   20.5089  -25.6634    0.0794 H   0  0
   25.2748  -25.4340   -0.9948 H   0  0
   25.3384  -25.4684    0.7840 H   0  0
   26.7907  -27.2377   -0.1930 H   0  0
   25.3871  -27.9220   -1.0466 H   0  0
   25.4507  -27.9564    0.7317 H   0  0
   10.4198  -18.1204   -0.0063 H   0  0
   14.1693  -17.4038   -0.0018 H   0  0
   15.1566  -15.1489    0.0005 H   0  0
   11.2384  -13.4272   -0.0014 H   0  0
   10.2478  -15.6835   -0.0037 H   0  0
   15.2089  -10.4499    0.0013 H   0  0
   10.2940   -9.8858   -0.0004 H   0  0
   11.2726  -12.1498    0.0000 H   0  0
   15.4892   -8.0506    0.0010 H   0  0
   14.5030   -5.7786    0.0003 H   0  0
   12.0381   -5.4912   -0.0005 H   0  0
   10.5620   -7.4898   -0.0006 H   0  0
  2  1  2  0
  3  2  2  0
  5  4  2  0
  6  5  2  0
  7  8  4  0
  8  9  4  0
  9 10  4  0
 10 11  4  0
 11 12  4  0
 12  7  4  0
 12 13  1  0
 13 14  1  0
 14 15  1  0
  9 16  1  0
 16 17  1  0
 17 18  1  0
 15 19  4  0
 19 20  4  0
 20 21  4  0
 21 22  4  0
 22 23  4  0
 23 15  4  0
 18 24  4  0
 24 25  4  0
 25 26  4  0
 26 27  4  0
 27 28  4  0
 28 18  4  0
 10 29  1  0
 29 30  2  0
 21 31  1  0
 31 32  2  0
 32  5  1  0
  5 33  1  0
 33 34  1  0
 34 35  1  0
 26 36  1  0
 36 37  2  0
 37  2  1  0
  2 38  1  0
 38 39  1  0
 39 40  1  0
 29 41  1  0
 41 42  1  0
 42 43  4  0
 43 44  4  0
 44 45  4  0
 45 46  4  0
 46 47  4  0
 47 42  4  0
 45 48  1  0
 48 49  1  0
 49 50  4  0
 50 54  4  0
 53 51  4  0
 51 52  4  0
 52 49  4  0
 53 54  4  0
 54 55  4  0
 55 56  4  0
 56 57  4  0
 57 58  4  0
 58 53  4  0
  7 59  1  0
  8 60  1  0
 11 61  1  0
 13 62  1  0
 13 63  1  0
 16 64  1  0
 16 65  1  0
 19 66  1  0
 20 67  1  0
 22 68  1  0
 23 69  1  0
 24 70  1  0
 25 71  1  0
 27 72  1  0
 28 73  1  0
 31 74  1  0
 32 75  1  0
 34 76  1  0
 34 77  1  0
 35 78  1  0
 35 79  1  0
 35 80  1  0
 36 81  1  0
 37 82  1  0
 39 83  1  0
 39 84  1  0
 40 85  1  0
 40 86  1  0
 40 87  1  0
 41 88  1  0
 43 89  1  0
 44 90  1  0
 46 91  1  0
 47 92  1  0
 50 93  1  0
 51 94  1  0
 52 95  1  0
 55 96  1  0
 56 97  1  0
 57 98  1  0
 58 99  1  0
M  END
> <Name>
Molecule

> <Clean Energy>
35.8773

> <From>
www.bindingDB.org

> <BindingDB Reactant_set_id>
50808693

> <Ligand InChI>
InChI=1S/C45H41NO10S2/c1-3-54-57(48,49)27-25-33-10-18-40(19-11-33)52-31-35-9-14-38(32-53-41-20-12-34(13-21-41)26-28-58(50,51)55-4-2)44(29-35)45(47)46-39-16-23-42(24-17-39)56-43-22-15-36-7-5-6-8-37(36)
30-43/h5-30H,3-4,31-32H2,1-2H3,(H,46,47)/b27-25+,28-26+

> <Ligand InChI Key>
ZUVFJSBTHSRRGC-NBHCHVEOSA-N

> <BindingDB MonomerID>
50256827

> <BindingDB Ligand Name>
CHEMBL4087216

> <Target Name>
Tyrosine-protein phosphatase non-receptor type 1

> <Target Source Organism According to Curator or DataSource>
Homo sapiens

> <IC50 (nM)>
790

> <Curation/DataSource>
ChEMBL

> <Article DOI>
10.1016/j.bmcl.2017.03.060

> <BindingDB Entry DOI>
10.7270/Q2FR0024

> <PMID>
28372909

> <Authors>
Yang, F; Xie, F; Zhang, Y; Xia, Y; Liu, W; Jiang, F; Lam, C; Qiao, Y; Xie, D; Li, J; Fu, L

> <Institution>
Shanghai Jiao Tong University

> <Link to Ligand in BindingDB>
http://www.bindingdb.org/bind/chemsearch/marvin/MolStructure.jsp?monomerid=50256827

> <Link to Ligand-Target Pair in BindingDB>
http://www.bindingdb.org/jsp/dbsearch/PrimarySearch_ki.jsp?energyterm=kJ/mole&tag=pol&polymerid=2622&target=Tyrosine-protein+phosphatase+non-receptor+type+1&column=ki&startPg=0&Increment=50&submit=Sea
rch
http://www.bindingdb.org/jsp/dbsearch/PrimarySearch_ki.jsp?energyterm=kJ/mole&tag=r21&monomerid=50256827&enzyme=Tyrosine-protein+phosphatase+non-receptor+type+1&column=ki&startPg=0&Increment=50&submit
=Search

> <PubChem CID of Ligand>
137642032

> <PubChem SID of Ligand>
402360891

> <Number of Protein Chains in Target (bigger than 1 implies a multichain complex)>
1

> <BindingDB Target Chain Sequence>
MEMEKEFEQIDKSGSWAAIYQDIRHEASDFPCRVAKLPKNKNRNRYRDVSPFDHSRIKLHQEDNDYINASLIKMEEAQRSYILTQGPLPNTCGHFWEMVWEQKSRGVVMLNRVMEKGSLKCAQYWPQKEEKEMIFEDTNLKLTLISEDIKSYYTVRQLELENLTTQETREILHFHYTTWPDFGVPESPASFLNFLFKVRE
SGSLSPEHGPVVVHCSAGIGRSGTFCLADTCLLLMDKRKDPSSVDIKKVLLEMRKFRMGLIQTADQLRFSYLAVIEGAKFIMGDSSVQDQWKELSHEDLEPPPEHIPPPPRPPKRILEPHNGKCREFFPNHQWVKEETQEDKDCPIKEEKGSPLNAAPYGIESMSQDTEVRSRVVGGSLRGAQAASPAKGEPSLPEKDED
HALSYWKPFLVNMCVATVLTAGAYLCYRFLFNSNT

> <PDB ID(s) of Target Chain>
1BZJ,1G7G,1GFY,1JF7,1KAK,1KAV,1LQF,1NL9,1NNY,1NO6,1NZ7,1OEM,1OEO,1OES,1OET,1OEU,1OEV,1ONY,1ONZ,1PH0,1PXH,1PYN,1Q1M,1Q6J,1Q6M,1Q6N,1Q6P,1Q6S,1Q6T,1QXK,1SUG,1T48,1T49,1T4J,1WAX,1XBO,2AZR,2B07,2BGD,2BGE,
2CM2,2CM3,2CM7,2CM8,2CMA,2CMB,2CMC,2CNE,2CNF,2CNG,2CNH,2CNI,2F6T,2F6V,2F6W,2F6Y,2F6Z,2F70,2F71,2FJN,2H4G,2H4K,2HB1,2HNP,2HNQ,2QBP,2QBQ,2QBR,2QBS,2VEU,2VEV,2VEW,2VEX,2VEY,2ZMM,2ZN7,3A5J,3CWE,3D9C,3EAX,
3EB1,3EU0,3I7Z,3I80,3SME,4BJO,4I8N,4QBW,4Y14,5K9V,5K9W,5KA0,5KA1,5T19,6B90,6NTP,6W30,7KEY,7KLX,7LFO,7MN9,7MNA,8DU7,8G65,8G67,8G68,8G69,8G6A,8SKL

> <UniProt (SwissProt) Recommended Name of Target Chain>
Tyrosine-protein phosphatase non-receptor type 1

> <UniProt (SwissProt) Entry Name of Target Chain>
PTN1_HUMAN

> <UniProt (SwissProt) Primary ID of Target Chain>
P18031

> <UniProt (SwissProt) Secondary ID(s) of Target Chain>
Q5TGD8 Q9BQV9 Q9NQQ4

$$$$
Molecule
  SciTegic10242319433D

 47 50  0  0  0  0            999 V2000
   -1.4806  -22.4050    0.0001 C   0  0
    0.0052  -22.4533    0.0001 C   0  0
   -1.8522  -21.1204    0.0000 C   0  0
   -0.6371  -20.3363    0.0000 C   0  0
    0.4404  -21.1928    0.0001 C   0  0
    1.8053  -20.6522    0.0001 C   0  0
    1.9129  -19.3761    0.0000 N   0  0
    0.8411  -18.5544   -0.0001 O   0  0
   -0.4678  -19.0250   -0.0001 C   0  0
    3.0548  -21.4888    0.0001 C   0  0
    3.0237  -22.9621    0.0002 C   0  0
    4.1505  -23.6677    0.0002 C   0  0
    5.4445  -22.9842    0.0001 C   0  0
    5.4842  -21.6524    0.0000 C   0  0
    4.2369  -20.8725    0.0000 C   0  0
    6.6404  -23.7196    0.0000 O   0  0
    6.3708  -25.1309    0.0001 C   0  0
    7.6627  -25.8926   -0.0002 C   0  0
    7.6513  -27.1290   -0.0002 O   0  0
    8.8728  -25.2079   -0.0007 O   0  0
   -3.2596  -20.5684   -0.0002 C   0  0
   -3.4085  -19.3414   -0.0003 O   0  0
   -4.5064  -21.4213   -0.0001 C   0  0
   -5.6922  -20.8121   -0.0003 C   0  0
   -6.9345  -21.5998   -0.0002 C   0  0
   -6.8870  -22.9341    0.0001 C   0  0
   -5.5961  -23.6067    0.0003 C   0  0
   -4.4728  -22.8961    0.0002 C   0  0
   -8.0616  -23.7084    0.0002 O   0  0
   -9.2371  -22.8865    0.0000 C   0  0
   -2.1497  -23.2656    0.0001 H   0  0
    0.6233  -23.3511    0.0002 H   0  0
   -1.3174  -18.3421   -0.0002 H   0  0
    2.0646  -23.4800    0.0003 H   0  0
    4.1104  -24.7570    0.0003 H   0  0
    6.4454  -21.1384   -0.0001 H   0  0
    4.2796  -19.7834   -0.0001 H   0  0
    5.7978  -25.3901    0.8904 H   0  0
    5.7974  -25.3901   -0.8899 H   0  0
    8.9339  -24.6047   -0.8580 H   0  0
   -5.7415  -19.7232   -0.0005 H   0  0
   -7.8988  -21.0916   -0.0003 H   0  0
   -5.5505  -24.6957    0.0005 H   0  0
   -3.5120  -23.4109    0.0003 H   0  0
  -10.1241  -23.5200    0.0000 H   0  0
   -9.2409  -22.2572   -0.8900 H   0  0
   -9.2410  -22.2568    0.8897 H   0  0
 14 15  1  0
 15 10  2  0
  6 10  1  0
  4  9  2  0
 13 16  1  0
  5  6  1  0
 16 17  1  0
  6  7  2  0
 17 18  1  0
  7  8  1  0
 18 19  2  0
  8  9  1  0
 18 20  1  0
  1  2  1  0
  3 21  1  0
 21 22  2  0
 10 11  1  0
 21 23  1  0
  2  5  2  0
 23 24  2  0
 11 12  2  0
 24 25  1  0
  4  3  1  0
 25 26  2  0
 12 13  1  0
 26 27  1  0
  3  1  2  0
 27 28  2  0
 28 23  1  0
 13 14  2  0
 26 29  1  0
  4  5  1  0
 29 30  1  0
  1 31  1  0
  2 32  1  0
  9 33  1  0
 11 34  1  0
 12 35  1  0
 14 36  1  0
 15 37  1  0
 17 38  1  0
 17 39  1  0
 20 40  1  0
 24 41  1  0
 25 42  1  0
 27 43  1  0
 28 44  1  0
 30 45  1  0
 30 46  1  0
 30 47  1  0
M  END
> <Name>
Molecule

> <Clean Energy>
25.6782

> <From>
www.bindingDB.org

> <BindingDB Reactant_set_id>
50328222

> <Ligand InChI>
InChI=1S/C23H17NO6/c1-28-16-6-4-15(5-7-16)23(27)19-11-10-18-20(19)12-30-24-22(18)14-2-8-17(9-3-14)29-13-21(25)26/h2-12H,13H2,1H3,(H,25,26)

> <Ligand InChI Key>
MKSGIYQLOOWXQY-UHFFFAOYSA-N

> <BindingDB MonomerID>
50177317

> <BindingDB Ligand Name>
2-(4-(7-(4-methoxybenzoyl)cyclopenta[d][1,2]oxazin-4-yl)phenoxy)acetic acid::CHEMBL201662

> <Target Name>
Tyrosine-protein phosphatase non-receptor type 1

> <Target Source Organism According to Curator or DataSource>
Homo sapiens

> <IC50 (nM)>
800

> <Curation/DataSource>
ChEMBL

> <Article DOI>
10.1016/j.bmcl.2005.10.062

> <BindingDB Entry DOI>
10.7270/Q2319VFG

> <PMID>
16289879

> <Authors>
Cho, SY; Baek, JY; Han, SS; Kang, SK; Ha, JD; Ahn, JH; Lee, JD; Kim, KR; Cheon, HG; Rhee, SD; Yang, SD; Yon, GH; Pak, CS; Choi, JK

> <Institution>
Korea Research Institute of Chemical Technology

> <Link to Ligand in BindingDB>
http://www.bindingdb.org/bind/chemsearch/marvin/MolStructure.jsp?monomerid=50177317

> <Link to Ligand-Target Pair in BindingDB>
http://www.bindingdb.org/jsp/dbsearch/PrimarySearch_ki.jsp?energyterm=kJ/mole&tag=pol&polymerid=2622&target=Tyrosine-protein+phosphatase+non-receptor+type+1&column=ki&startPg=0&Increment=50&submit=Sea
rch
http://www.bindingdb.org/jsp/dbsearch/PrimarySearch_ki.jsp?energyterm=kJ/mole&tag=r21&monomerid=50177317&enzyme=Tyrosine-protein+phosphatase+non-receptor+type+1&column=ki&startPg=0&Increment=50&submit
=Search

> <PubChem CID of Ligand>
11516963

> <PubChem SID of Ligand>
104062785

> <ChEMBL ID of Ligand>
CHEMBL201662

> <ZINC ID of Ligand>
ZINC28567695

> <Number of Protein Chains in Target (bigger than 1 implies a multichain complex)>
1

> <BindingDB Target Chain Sequence>
MEMEKEFEQIDKSGSWAAIYQDIRHEASDFPCRVAKLPKNKNRNRYRDVSPFDHSRIKLHQEDNDYINASLIKMEEAQRSYILTQGPLPNTCGHFWEMVWEQKSRGVVMLNRVMEKGSLKCAQYWPQKEEKEMIFEDTNLKLTLISEDIKSYYTVRQLELENLTTQETREILHFHYTTWPDFGVPESPASFLNFLFKVRE
SGSLSPEHGPVVVHCSAGIGRSGTFCLADTCLLLMDKRKDPSSVDIKKVLLEMRKFRMGLIQTADQLRFSYLAVIEGAKFIMGDSSVQDQWKELSHEDLEPPPEHIPPPPRPPKRILEPHNGKCREFFPNHQWVKEETQEDKDCPIKEEKGSPLNAAPYGIESMSQDTEVRSRVVGGSLRGAQAASPAKGEPSLPEKDED
HALSYWKPFLVNMCVATVLTAGAYLCYRFLFNSNT

> <PDB ID(s) of Target Chain>
1BZJ,1G7G,1GFY,1JF7,1KAK,1KAV,1LQF,1NL9,1NNY,1NO6,1NZ7,1OEM,1OEO,1OES,1OET,1OEU,1OEV,1ONY,1ONZ,1PH0,1PXH,1PYN,1Q1M,1Q6J,1Q6M,1Q6N,1Q6P,1Q6S,1Q6T,1QXK,1SUG,1T48,1T49,1T4J,1WAX,1XBO,2AZR,2B07,2BGD,2BGE,
2CM2,2CM3,2CM7,2CM8,2CMA,2CMB,2CMC,2CNE,2CNF,2CNG,2CNH,2CNI,2F6T,2F6V,2F6W,2F6Y,2F6Z,2F70,2F71,2FJN,2H4G,2H4K,2HB1,2HNP,2HNQ,2QBP,2QBQ,2QBR,2QBS,2VEU,2VEV,2VEW,2VEX,2VEY,2ZMM,2ZN7,3A5J,3CWE,3D9C,3EAX,
3EB1,3EU0,3I7Z,3I80,3SME,4BJO,4I8N,4QBW,4Y14,5K9V,5K9W,5KA0,5KA1,5T19,6B90,6NTP,6W30,7KEY,7KLX,7LFO,7MN9,7MNA,8DU7,8G65,8G67,8G68,8G69,8G6A,8SKL

> <UniProt (SwissProt) Recommended Name of Target Chain>
Tyrosine-protein phosphatase non-receptor type 1

> <UniProt (SwissProt) Entry Name of Target Chain>
PTN1_HUMAN

> <UniProt (SwissProt) Primary ID of Target Chain>
P18031

> <UniProt (SwissProt) Secondary ID(s) of Target Chain>
Q5TGD8 Q9BQV9 Q9NQQ4

$$$$
Molecule
  SciTegic10242319433D

 69 70  0  0  0  0            999 V2000
    1.0689   -3.0882    0.1257 C   0  0
    0.7704   -4.1778   -0.9032 C   0  0
    2.0429   -5.0530   -0.8092 C   0  0
    2.4598   -4.9329    0.6929 C   0  0
    1.3708   -4.0166    1.2995 C   0  0
    1.0545   -0.2182   -0.0266 C   0  0
    1.1386    1.3250   -0.1293 C   0  0
    2.2277    1.8338   -0.4157 O   0  0
   -0.0778    2.2675    0.0848 C   0  0
    0.2695    3.8008   -0.0909 C   0  0
   -1.0378    4.6838    0.0854 C   0  0
   -0.7626    6.2372   -0.0675 C   0  0
   -2.1053    7.0727    0.0735 C   0  0
   -1.8597    8.6324   -0.0552 C   0  0
   -3.2138    9.4463    0.0584 C   0  0
   -2.9699   11.0037   -0.0468 C   0  0
   -4.3224   11.8096    0.0459 C   0  0
   -4.0674   13.3588   -0.0396 C   0  0
   -5.4126   14.1605    0.0372 C   0  0
   -5.1422   15.6977   -0.0350 C   0  0
   -6.4778   16.4952    0.0296 C   0  0
   -6.1917   18.0186   -0.0369 C   0  0
   -7.5173   18.8116    0.0194 C   0  0
    2.2618   -1.0128   -0.3062 C   0  0
    2.2293   -2.3787   -0.2345 O   0  0
   -0.0546   -2.2697    0.3724 O   0  0
   -0.0573   -0.8941    0.3021 C   0  0
    3.3165   -0.4515   -0.6182 O   0  0
   -1.2535   -0.2537    0.5875 O   0  0
   -0.1218   -4.7437   -0.6354 H   0  0
    0.6493   -3.7587   -1.9021 H   0  0
    1.8235   -6.0881   -1.0707 H   0  0
    2.8272   -4.6709   -1.4626 H   0  0
    2.4597   -5.9099    1.1761 H   0  0
    3.4467   -4.4800    0.7879 H   0  0
    0.4894   -4.5863    1.5937 H   0  0
    1.7494   -3.4626    2.1584 H   0  0
   -0.8491    2.0040   -0.6389 H   0  0
   -0.4586    2.1142    1.0945 H   0  0
    1.0040    4.0917    0.6601 H   0  0
    0.6826    3.9644   -1.0862 H   0  0
   -1.7636    4.3838   -0.6704 H   0  0
   -1.4492    4.5003    1.0780 H   0  0
   -0.0641    6.5528    0.7075 H   0  0
   -0.3272    6.4265   -1.0487 H   0  0
   -2.7959    6.7610   -0.7101 H   0  0
   -2.5452    6.8667    1.0493 H   0  0
   -1.1873    8.9515    0.7411 H   0  0
   -1.4024    8.8399   -1.0226 H   0  0
   -3.8798    9.1379   -0.7474 H   0  0
   -3.6788    9.2258    1.0193 H   0  0
   -2.3159   11.3152    0.7677 H   0  0
   -2.4920   11.2232   -1.0015 H   0  0
   -4.9717   11.5102   -0.7767 H   0  0
   -4.8081   11.5811    0.9946 H   0  0
   -3.4266   13.6597    0.7892 H   0  0
   -3.5719   13.5858   -0.9836 H   0  0
   -6.0508   13.8697   -0.7972 H   0  0
   -5.9142   13.9290    0.9768 H   0  0
   -4.5105   15.9895    0.8039 H   0  0
   -4.6332   15.9277   -0.9710 H   0  0
   -7.1092   16.2098   -0.8119 H   0  0
   -6.9904   16.2650    0.9636 H   0  0
   -5.5646   18.3046    0.8075 H   0  0
   -5.6742   18.2477   -0.9685 H   0  0
   -7.3047   19.8796   -0.0280 H   0  0
   -8.0369   18.5861    0.9507 H   0  0
   -8.1464   18.5292   -0.8248 H   0  0
   -1.1206    0.3877    1.4081 H   0  0
  1  2  1  0
  2  3  1  0
  3  4  1  0
  4  5  1  0
  5  1  1  0
  6  7  1  0
  7  8  2  0
  7  9  1  0
  9 10  1  0
 10 11  1  0
 11 12  1  0
 12 13  1  0
 13 14  1  0
 14 15  1  0
 15 16  1  0
 16 17  1  0
 17 18  1  0
 18 19  1  0
 19 20  1  0
 20 21  1  0
 21 22  1  0
 22 23  1  0
  6 24  1  0
  6 27  2  0
 24 25  1  0
 25  1  1  0
  1 26  1  0
 26 27  1  0
 24 28  2  0
 27 29  1  0
  2 30  1  0
  2 31  1  0
  3 32  1  0
  3 33  1  0
  4 34  1  0
  4 35  1  0
  5 36  1  0
  5 37  1  0
  9 38  1  0
  9 39  1  0
 10 40  1  0
 10 41  1  0
 11 42  1  0
 11 43  1  0
 12 44  1  0
 12 45  1  0
 13 46  1  0
 13 47  1  0
 14 48  1  0
 14 49  1  0
 15 50  1  0
 15 51  1  0
 16 52  1  0
 16 53  1  0
 17 54  1  0
 17 55  1  0
 18 56  1  0
 18 57  1  0
 19 58  1  0
 19 59  1  0
 20 60  1  0
 20 61  1  0
 21 62  1  0
 21 63  1  0
 22 64  1  0
 22 65  1  0
 23 66  1  0
 23 67  1  0
 23 68  1  0
 29 69  1  0
M  END
> <Name>
Molecule

> <Clean Energy>
30.0571

> <From>
www.bindingDB.org

> <BindingDB Reactant_set_id>
50338520

> <Ligand InChI>
InChI=1S/C24H40O5/c1-2-3-4-5-6-7-8-9-10-11-12-13-14-17-20(25)21-22(26)28-24(29-23(21)27)18-15-16-19-24/h26H,2-19H2,1H3

> <Ligand InChI Key>
LYMYYCIEXZQOED-UHFFFAOYSA-N

> <BindingDB MonomerID>
50088050

> <BindingDB Ligand Name>
CHEMBL3427224

> <Target Name>
Tyrosine-protein phosphatase non-receptor type 1

> <Target Source Organism According to Curator or DataSource>
Homo sapiens

> <IC50 (nM)>
800

> <Curation/DataSource>
ChEMBL

> <Article DOI>
10.1016/j.ejmech.2015.04.036

> <BindingDB Entry DOI>
10.7270/Q2TF002F

> <PMID>
25938987

> <Authors>
Carneiro, VM; Trivella, DB; Scorsato, V; Beraldo, VL; Dias, MP; Sobreira, TJ; Aparicio, R; Pilli, RA

> <Institution>
University of Campinas

> <Link to Ligand in BindingDB>
http://www.bindingdb.org/bind/chemsearch/marvin/MolStructure.jsp?monomerid=50088050

> <Link to Ligand-Target Pair in BindingDB>
http://www.bindingdb.org/jsp/dbsearch/PrimarySearch_ki.jsp?energyterm=kJ/mole&tag=pol&polymerid=2622&target=Tyrosine-protein+phosphatase+non-receptor+type+1&column=ki&startPg=0&Increment=50&submit=Sea
rch
http://www.bindingdb.org/jsp/dbsearch/PrimarySearch_ki.jsp?energyterm=kJ/mole&tag=r21&monomerid=50088050&enzyme=Tyrosine-protein+phosphatase+non-receptor+type+1&column=ki&startPg=0&Increment=50&submit
=Search

> <PubChem CID of Ligand>
118737696

> <PubChem SID of Ligand>
313083687

> <ChEMBL ID of Ligand>
CHEMBL3427224

> <Number of Protein Chains in Target (bigger than 1 implies a multichain complex)>
1

> <BindingDB Target Chain Sequence>
MEMEKEFEQIDKSGSWAAIYQDIRHEASDFPCRVAKLPKNKNRNRYRDVSPFDHSRIKLHQEDNDYINASLIKMEEAQRSYILTQGPLPNTCGHFWEMVWEQKSRGVVMLNRVMEKGSLKCAQYWPQKEEKEMIFEDTNLKLTLISEDIKSYYTVRQLELENLTTQETREILHFHYTTWPDFGVPESPASFLNFLFKVRE
SGSLSPEHGPVVVHCSAGIGRSGTFCLADTCLLLMDKRKDPSSVDIKKVLLEMRKFRMGLIQTADQLRFSYLAVIEGAKFIMGDSSVQDQWKELSHEDLEPPPEHIPPPPRPPKRILEPHNGKCREFFPNHQWVKEETQEDKDCPIKEEKGSPLNAAPYGIESMSQDTEVRSRVVGGSLRGAQAASPAKGEPSLPEKDED
HALSYWKPFLVNMCVATVLTAGAYLCYRFLFNSNT

> <PDB ID(s) of Target Chain>
1BZJ,1G7G,1GFY,1JF7,1KAK,1KAV,1LQF,1NL9,1NNY,1NO6,1NZ7,1OEM,1OEO,1OES,1OET,1OEU,1OEV,1ONY,1ONZ,1PH0,1PXH,1PYN,1Q1M,1Q6J,1Q6M,1Q6N,1Q6P,1Q6S,1Q6T,1QXK,1SUG,1T48,1T49,1T4J,1WAX,1XBO,2AZR,2B07,2BGD,2BGE,
2CM2,2CM3,2CM7,2CM8,2CMA,2CMB,2CMC,2CNE,2CNF,2CNG,2CNH,2CNI,2F6T,2F6V,2F6W,2F6Y,2F6Z,2F70,2F71,2FJN,2H4G,2H4K,2HB1,2HNP,2HNQ,2QBP,2QBQ,2QBR,2QBS,2VEU,2VEV,2VEW,2VEX,2VEY,2ZMM,2ZN7,3A5J,3CWE,3D9C,3EAX,
3EB1,3EU0,3I7Z,3I80,3SME,4BJO,4I8N,4QBW,4Y14,5K9V,5K9W,5KA0,5KA1,5T19,6B90,6NTP,6W30,7KEY,7KLX,7LFO,7MN9,7MNA,8DU7,8G65,8G67,8G68,8G69,8G6A,8SKL

> <UniProt (SwissProt) Recommended Name of Target Chain>
Tyrosine-protein phosphatase non-receptor type 1

> <UniProt (SwissProt) Entry Name of Target Chain>
PTN1_HUMAN

> <UniProt (SwissProt) Primary ID of Target Chain>
P18031

> <UniProt (SwissProt) Secondary ID(s) of Target Chain>
Q5TGD8 Q9BQV9 Q9NQQ4

$$$$
Molecule
  SciTegic10242319433D

 68 68  0  0  0  0            999 V2000
   -0.6765    1.7493    0.0709 C   0  0
    0.6417    0.9579    0.1105 C   0  0
    1.6998    1.5962    0.2429 O   0  0
    0.7242   -0.5811   -0.0007 C   0  0
    2.1892   -1.1570    0.0666 C   0  0
    2.1414   -2.7371   -0.0229 C   0  0
    3.5716   -3.4062    0.0370 C   0  0
    3.4572   -4.9855   -0.0290 C   0  0
    4.8721   -5.6881    0.0235 C   0  0
    4.7401   -7.2633   -0.0253 C   0  0
    6.1539   -7.9620    0.0182 C   0  0
    6.0266   -9.5317   -0.0194 C   0  0
    7.4425  -10.2118    0.0153 C   0  0
    7.3231  -11.7736   -0.0149 C   0  0
    8.7389  -12.4320    0.0135 C   0  0
    8.6243  -13.9839   -0.0113 C   0  0
   10.0381  -14.6217    0.0143 C   0  0
    9.9261  -16.1630   -0.0070 C   0  0
   -0.6523    3.2043    0.2138 C   0  0
   -1.7980    3.9351    0.1776 O   0  0
   -3.0467    3.3607   -0.1263 C   0  0  2  0  0  0
   -3.0303    1.9510   -0.1116 O   0  0
   -1.8968    1.1770   -0.0833 C   0  0
    0.4297    3.7891    0.3918 O   0  0
   -2.0573   -0.1898   -0.2171 O   0  0
   -3.4649    3.8333   -1.5356 C   0  0
   -4.1185    3.8709    0.8649 C   0  0
   -5.4989    3.2821    0.4933 C   0  0
    0.1492   -1.0140    0.8178 H   0  0
    0.2837   -0.8788   -0.9523 H   0  0
    2.7724   -0.7637   -0.7661 H   0  0
    2.6527   -0.8606    1.0076 H   0  0
    1.5475   -3.1136    0.8100 H   0  0
    1.6671   -3.0167   -0.9636 H   0  0
    4.1657   -3.0555   -0.8070 H   0  0
    4.0603   -3.1221    0.9690 H   0  0
    2.8624   -5.3301    0.8170 H   0  0
    2.9616   -5.2630   -0.9593 H   0  0
    5.4640   -5.3559   -0.8294 H   0  0
    5.3745   -5.4034    0.9480 H   0  0
    4.1537   -7.5964    0.8311 H   0  0
    4.2323   -7.5480   -0.9468 H   0  0
    6.7370   -7.6339   -0.8423 H   0  0
    6.6643   -7.6706    0.9361 H   0  0
    5.4506   -9.8634    0.8445 H   0  0
    5.5122   -9.8258   -0.9343 H   0  0
    8.0160   -9.8826   -0.8512 H   0  0
    7.9581   -9.9125    0.9279 H   0  0
    6.7555  -12.1065    0.8542 H   0  0
    6.8054  -12.0759   -0.9252 H   0  0
    9.3048  -12.1011   -0.8574 H   0  0
    9.2575  -12.1261    0.9221 H   0  0
    8.0620  -14.3180    0.8607 H   0  0
    8.1056  -14.2928   -0.9189 H   0  0
   10.5993  -14.2891   -0.8590 H   0  0
   10.5574  -14.3105    0.9207 H   0  0
   10.9242  -16.6006    0.0112 H   0  0
    9.4085  -16.4777   -0.9131 H   0  0
    9.3666  -16.4992    0.8660 H   0  0
   -1.5358   -0.5226   -1.0655 H   0  0
   -4.4313    3.3999   -1.7928 H   0  0
   -2.7187    3.5133   -2.2630 H   0  0
   -3.5402    4.9206   -1.5474 H   0  0
   -3.8533    3.5607    1.8756 H   0  0
   -4.1652    4.9589    0.8188 H   0  0
   -6.2500    3.6449    1.1948 H   0  0
   -5.4547    2.1940    0.5395 H   0  0
   -5.7665    3.5918   -0.5170 H   0  0
  1  2  1  0
  2  3  2  0
  2  4  1  0
  4  5  1  0
  5  6  1  0
  6  7  1  0
  7  8  1  0
  8  9  1  0
  9 10  1  0
 10 11  1  0
 11 12  1  0
 12 13  1  0
 13 14  1  0
 14 15  1  0
 15 16  1  0
 16 17  1  0
 17 18  1  0
  1 19  1  0
  1 23  2  0
 19 20  1  0
 20 21  1  0
 21 22  1  0
 22 23  1  0
 19 24  2  0
 23 25  1  0
 21 26  1  0
 21 27  1  0
 27 28  1  0
  4 29  1  0
  4 30  1  0
  5 31  1  0
  5 32  1  0
  6 33  1  0
  6 34  1  0
  7 35  1  0
  7 36  1  0
  8 37  1  0
  8 38  1  0
  9 39  1  0
  9 40  1  0
 10 41  1  0
 10 42  1  0
 11 43  1  0
 11 44  1  0
 12 45  1  0
 12 46  1  0
 13 47  1  0
 13 48  1  0
 14 49  1  0
 14 50  1  0
 15 51  1  0
 15 52  1  0
 16 53  1  0
 16 54  1  0
 17 55  1  0
 17 56  1  0
 18 57  1  0
 18 58  1  0
 18 59  1  0
 25 60  1  0
 26 61  1  0
 26 62  1  0
 26 63  1  0
 27 64  1  0
 27 65  1  0
 28 66  1  0
 28 67  1  0
 28 68  1  0
M  END
> <Name>
Molecule

> <Clean Energy>
11.7486

> <From>
www.bindingDB.org

> <BindingDB Reactant_set_id>
50338444

> <Ligand InChI>
InChI=1S/C23H40O5/c1-4-6-7-8-9-10-11-12-13-14-15-16-17-18-19(24)20-21(25)27-23(3,5-2)28-22(20)26/h25H,4-18H2,1-3H3

> <Ligand InChI Key>
JVUIKWWCZHVYRL-UHFFFAOYSA-N

> <BindingDB MonomerID>
50088044

> <BindingDB Ligand Name>
CHEMBL3427137

> <Target Name>
Tyrosine-protein phosphatase non-receptor type 1

> <Target Source Organism According to Curator or DataSource>
Homo sapiens

> <IC50 (nM)>
800

> <Curation/DataSource>
ChEMBL

> <Article DOI>
10.1016/j.ejmech.2015.04.036

> <BindingDB Entry DOI>
10.7270/Q2TF002F

> <PMID>
25938987

> <Authors>
Carneiro, VM; Trivella, DB; Scorsato, V; Beraldo, VL; Dias, MP; Sobreira, TJ; Aparicio, R; Pilli, RA

> <Institution>
University of Campinas

> <Link to Ligand in BindingDB>
http://www.bindingdb.org/bind/chemsearch/marvin/MolStructure.jsp?monomerid=50088044

> <Link to Ligand-Target Pair in BindingDB>
http://www.bindingdb.org/jsp/dbsearch/PrimarySearch_ki.jsp?energyterm=kJ/mole&tag=pol&polymerid=2622&target=Tyrosine-protein+phosphatase+non-receptor+type+1&column=ki&startPg=0&Increment=50&submit=Sea
rch
http://www.bindingdb.org/jsp/dbsearch/PrimarySearch_ki.jsp?energyterm=kJ/mole&tag=r21&monomerid=50088044&enzyme=Tyrosine-protein+phosphatase+non-receptor+type+1&column=ki&startPg=0&Increment=50&submit
=Search

> <PubChem CID of Ligand>
118737614

> <PubChem SID of Ligand>
313083681

> <ChEMBL ID of Ligand>
CHEMBL3427137

> <Number of Protein Chains in Target (bigger than 1 implies a multichain complex)>
1

> <BindingDB Target Chain Sequence>
MEMEKEFEQIDKSGSWAAIYQDIRHEASDFPCRVAKLPKNKNRNRYRDVSPFDHSRIKLHQEDNDYINASLIKMEEAQRSYILTQGPLPNTCGHFWEMVWEQKSRGVVMLNRVMEKGSLKCAQYWPQKEEKEMIFEDTNLKLTLISEDIKSYYTVRQLELENLTTQETREILHFHYTTWPDFGVPESPASFLNFLFKVRE
SGSLSPEHGPVVVHCSAGIGRSGTFCLADTCLLLMDKRKDPSSVDIKKVLLEMRKFRMGLIQTADQLRFSYLAVIEGAKFIMGDSSVQDQWKELSHEDLEPPPEHIPPPPRPPKRILEPHNGKCREFFPNHQWVKEETQEDKDCPIKEEKGSPLNAAPYGIESMSQDTEVRSRVVGGSLRGAQAASPAKGEPSLPEKDED
HALSYWKPFLVNMCVATVLTAGAYLCYRFLFNSNT

> <PDB ID(s) of Target Chain>
1BZJ,1G7G,1GFY,1JF7,1KAK,1KAV,1LQF,1NL9,1NNY,1NO6,1NZ7,1OEM,1OEO,1OES,1OET,1OEU,1OEV,1ONY,1ONZ,1PH0,1PXH,1PYN,1Q1M,1Q6J,1Q6M,1Q6N,1Q6P,1Q6S,1Q6T,1QXK,1SUG,1T48,1T49,1T4J,1WAX,1XBO,2AZR,2B07,2BGD,2BGE,
2CM2,2CM3,2CM7,2CM8,2CMA,2CMB,2CMC,2CNE,2CNF,2CNG,2CNH,2CNI,2F6T,2F6V,2F6W,2F6Y,2F6Z,2F70,2F71,2FJN,2H4G,2H4K,2HB1,2HNP,2HNQ,2QBP,2QBQ,2QBR,2QBS,2VEU,2VEV,2VEW,2VEX,2VEY,2ZMM,2ZN7,3A5J,3CWE,3D9C,3EAX,
3EB1,3EU0,3I7Z,3I80,3SME,4BJO,4I8N,4QBW,4Y14,5K9V,5K9W,5KA0,5KA1,5T19,6B90,6NTP,6W30,7KEY,7KLX,7LFO,7MN9,7MNA,8DU7,8G65,8G67,8G68,8G69,8G6A,8SKL

> <UniProt (SwissProt) Recommended Name of Target Chain>
Tyrosine-protein phosphatase non-receptor type 1

> <UniProt (SwissProt) Entry Name of Target Chain>
PTN1_HUMAN

> <UniProt (SwissProt) Primary ID of Target Chain>
P18031

> <UniProt (SwissProt) Secondary ID(s) of Target Chain>
Q5TGD8 Q9BQV9 Q9NQQ4

$$$$
Molecule
  SciTegic10242319433D

 51 54  0  0  0  0            999 V2000
   -0.8286   -5.1234   -0.0198 N   0  0
   -2.0477   -5.5304   -0.0184 C   0  0
   -0.0208   -6.2950   -0.0235 C   0  0
   -2.1171   -6.8852   -0.0223 O   0  0
   -0.8575   -7.3431   -0.0248 C   0  0
   -6.8750   -2.3296    0.0480 C   0  0
   -3.2566   -4.6808   -0.0081 C   0  0
    1.5209   -6.2774   -0.0221 C   0  0
   -5.6082   -3.1466    0.0254 C   0  0
   12.1619   -5.1267    0.0019 C   0  0
    4.3633   -6.2160   -0.0126 C   0  0
    5.8476   -6.2150   -0.0071 C   0  0
   12.8598   -4.1058   -0.0019 O   0  0
   -4.4530   -5.2735    0.0020 C   0  0
   -3.1730   -3.2153   -0.0029 C   0  0
    2.1721   -5.1126   -0.0224 C   0  0
    2.3255   -7.5210   -0.0169 C   0  0
   -5.6792   -4.4748    0.0193 C   0  0
   -4.2921   -2.4851    0.0130 C   0  0
   -6.8222   -1.4449    1.1048 F   0  0
   -6.9310   -1.5648   -1.0982 F   0  0
   -7.9873   -3.1445    0.1385 F   0  0
    3.6560   -7.4873   -0.0122 C   0  0
    3.6635   -5.0772   -0.0180 C   0  0
    6.5019   -7.3781    0.0002 C   0  0
    6.6083   -4.9570   -0.0097 C   0  0
   10.0757   -6.3255    0.0069 O   0  0
   10.6587   -5.0131    0.0023 C   0  0
    8.6646   -6.2716    0.0028 C   0  0
   12.7675   -6.3804    0.0048 O   0  0
    7.9697   -7.4076    0.0054 C   0  0
    7.9446   -4.9818   -0.0050 C   0  0
   -0.5422   -8.8231   -0.0271 C   0  0
   -4.5169   -6.3616   -0.0028 H   0  0
   -2.2002   -2.7237   -0.0120 H   0  0
    1.6095   -4.1791   -0.0258 H   0  0
    1.8167   -8.4850   -0.0171 H   0  0
   -6.6510   -4.9685    0.0272 H   0  0
   -4.2309   -1.3968    0.0168 H   0  0
    4.2203   -8.4198   -0.0079 H   0  0
    4.1842   -4.1196   -0.0191 H   0  0
    5.9421   -8.3134    0.0024 H   0  0
    6.0817   -4.0026   -0.0153 H   0  0
   10.3364   -4.4701    0.8908 H   0  0
   10.3355   -4.4760   -0.8895 H   0  0
   12.4747   -6.9091    0.8635 H   0  0
    8.4930   -8.3637    0.0114 H   0  0
    8.5051   -4.0470   -0.0071 H   0  0
   -1.4713   -9.3930   -0.0276 H   0  0
    0.0363   -9.0733    0.8622 H   0  0
    0.0357   -9.0706   -0.9175 H   0  0
  2  1  2  0
  3  1  1  0
  4  2  1  0
  5  3  2  0
  6  9  1  0
  7  2  1  0
  8  3  1  0
  9 19  1  0
 10 28  1  0
 11 23  1  0
 12 11  1  0
 13 10  2  0
 14  7  2  0
 15  7  1  0
 16  8  2  0
 17  8  1  0
 18 14  1  0
 19 15  2  0
 20  6  1  0
 21  6  1  0
 22  6  1  0
 23 17  2  0
 24 16  1  0
 25 12  2  0
 26 12  1  0
 27 29  1  0
 28 27  1  0
 29 32  1  0
 30 10  1  0
 31 25  1  0
 32 26  2  0
 33  5  1  0
  4  5  1  0
 24 11  2  0
 18  9  2  0
 31 29  2  0
 14 34  1  0
 15 35  1  0
 16 36  1  0
 17 37  1  0
 18 38  1  0
 19 39  1  0
 23 40  1  0
 24 41  1  0
 25 42  1  0
 26 43  1  0
 28 44  1  0
 28 45  1  0
 30 46  1  0
 31 47  1  0
 32 48  1  0
 33 49  1  0
 33 50  1  0
 33 51  1  0
M  END
> <Name>
Molecule

> <Clean Energy>
31.461

> <From>
www.bindingDB.org

> <BindingDB Reactant_set_id>
50154632

> <Ligand InChI>
InChI=1S/C25H18F3NO4/c1-15-23(29-24(33-15)19-6-10-20(11-7-19)25(26,27)28)18-4-2-16(3-5-18)17-8-12-21(13-9-17)32-14-22(30)31/h2-13H,14H2,1H3,(H,30,31)

> <Ligand InChI Key>
ZXXZPXGCGULPSX-UHFFFAOYSA-N

> <BindingDB MonomerID>
50086948

> <BindingDB Ligand Name>
CHEMBL282113::{4'-[5-Methyl-2-(4-trifluoromethyl-phenyl)-oxazol-4-yl]-biphenyl-4-yloxy}-acetic acid

> <Target Name>
Tyrosine-protein phosphatase non-receptor type 1

> <Target Source Organism According to Curator or DataSource>
Homo sapiens

> <IC50 (nM)>
800

> <Curation/DataSource>
ChEMBL

> <Article DOI>
10.1021/jm990560c

> <BindingDB Entry DOI>
10.7270/Q2W958FT

> <PMID>
10753467

> <Authors>
Malamas, MS; Sredy, J; Moxham, C; Katz, A; Xu, W; McDevitt, R; Adebayo, FO; Sawicki, DR; Seestaller, L; Sullivan, D; Taylor, JR

> <Institution>
Wyeth-Ayerst Research

> <Link to Ligand in BindingDB>
http://www.bindingdb.org/bind/chemsearch/marvin/MolStructure.jsp?monomerid=50086948

> <Link to Ligand-Target Pair in BindingDB>
http://www.bindingdb.org/jsp/dbsearch/PrimarySearch_ki.jsp?energyterm=kJ/mole&tag=pol&polymerid=2622&target=Tyrosine-protein+phosphatase+non-receptor+type+1&column=ki&startPg=0&Increment=50&submit=Sea
rch
http://www.bindingdb.org/jsp/dbsearch/PrimarySearch_ki.jsp?energyterm=kJ/mole&tag=r21&monomerid=50086948&enzyme=Tyrosine-protein+phosphatase+non-receptor+type+1&column=ki&startPg=0&Increment=50&submit
=Search

> <PubChem CID of Ligand>
9933616

> <PubChem SID of Ligand>
103986059

> <ChEMBL ID of Ligand>
CHEMBL282113

> <ZINC ID of Ligand>
ZINC02008044

> <Number of Protein Chains in Target (bigger than 1 implies a multichain complex)>
1

> <BindingDB Target Chain Sequence>
MEMEKEFEQIDKSGSWAAIYQDIRHEASDFPCRVAKLPKNKNRNRYRDVSPFDHSRIKLHQEDNDYINASLIKMEEAQRSYILTQGPLPNTCGHFWEMVWEQKSRGVVMLNRVMEKGSLKCAQYWPQKEEKEMIFEDTNLKLTLISEDIKSYYTVRQLELENLTTQETREILHFHYTTWPDFGVPESPASFLNFLFKVRE
SGSLSPEHGPVVVHCSAGIGRSGTFCLADTCLLLMDKRKDPSSVDIKKVLLEMRKFRMGLIQTADQLRFSYLAVIEGAKFIMGDSSVQDQWKELSHEDLEPPPEHIPPPPRPPKRILEPHNGKCREFFPNHQWVKEETQEDKDCPIKEEKGSPLNAAPYGIESMSQDTEVRSRVVGGSLRGAQAASPAKGEPSLPEKDED
HALSYWKPFLVNMCVATVLTAGAYLCYRFLFNSNT

> <PDB ID(s) of Target Chain>
1BZJ,1G7G,1GFY,1JF7,1KAK,1KAV,1LQF,1NL9,1NNY,1NO6,1NZ7,1OEM,1OEO,1OES,1OET,1OEU,1OEV,1ONY,1ONZ,1PH0,1PXH,1PYN,1Q1M,1Q6J,1Q6M,1Q6N,1Q6P,1Q6S,1Q6T,1QXK,1SUG,1T48,1T49,1T4J,1WAX,1XBO,2AZR,2B07,2BGD,2BGE,
2CM2,2CM3,2CM7,2CM8,2CMA,2CMB,2CMC,2CNE,2CNF,2CNG,2CNH,2CNI,2F6T,2F6V,2F6W,2F6Y,2F6Z,2F70,2F71,2FJN,2H4G,2H4K,2HB1,2HNP,2HNQ,2QBP,2QBQ,2QBR,2QBS,2VEU,2VEV,2VEW,2VEX,2VEY,2ZMM,2ZN7,3A5J,3CWE,3D9C,3EAX,
3EB1,3EU0,3I7Z,3I80,3SME,4BJO,4I8N,4QBW,4Y14,5K9V,5K9W,5KA0,5KA1,5T19,6B90,6NTP,6W30,7KEY,7KLX,7LFO,7MN9,7MNA,8DU7,8G65,8G67,8G68,8G69,8G6A,8SKL

> <UniProt (SwissProt) Recommended Name of Target Chain>
Tyrosine-protein phosphatase non-receptor type 1

> <UniProt (SwissProt) Entry Name of Target Chain>
PTN1_HUMAN

> <UniProt (SwissProt) Primary ID of Target Chain>
P18031

> <UniProt (SwissProt) Secondary ID(s) of Target Chain>
Q5TGD8 Q9BQV9 Q9NQQ4

$$$$
Molecule
  SciTegic10242319433D

 52 57  0  0  0  0            999 V2000
    0.2993    5.6913   -0.0794 C   0  0
   -1.0831    5.4232   -0.0173 C   0  0
   -1.5245    4.1126    0.0397 C   0  0
   -0.5818    3.1001    0.0686 C   0  0
    0.7891    3.3596    0.0241 C   0  0
    1.2593    4.6523   -0.0733 C   0  0
    1.6014    2.2704    0.1138 O   0  0
    3.4335    1.8642   -0.1378 V   0  0
    3.8011    3.9680   -0.1996 N   0  0
    2.8216    4.8759   -0.1482 C   0  0
    5.2344    4.5367   -0.1458 C   0  0
    6.3175    3.6739   -0.1057 C   0  0
    7.6392    4.0785   -0.0197 C   0  0
    7.9222    5.4310    0.0396 C   0  0
    6.8641    6.3353    0.0106 C   0  0
    5.5338    5.9022   -0.0790 C   0  0
    3.0709   -0.1808   -0.0545 N   0  0
    3.9423   -1.1247   -0.0318 C   0  0
    5.3617   -1.0735   -0.0443 C   0  0
    6.0287    0.1358   -0.1797 C   0  0
    5.3224    1.4360   -0.3754 O   0  0
    6.0628   -2.2833    0.0530 C   0  0
    7.4534   -2.3087    0.0398 C   0  0
    8.1355   -1.1028   -0.0435 C   0  0
    7.4271    0.0962   -0.1565 C   0  0
    1.7075   -0.7769   -0.0314 C   0  0
    0.5336   -0.0370   -0.0277 C   0  0
   -0.7194   -0.6372   -0.0031 C   0  0
   -0.8215   -2.0204    0.0147 C   0  0
    0.3386   -2.7842    0.0099 C   0  0
    1.5871   -2.1667   -0.0117 C   0  0
    3.8482    2.0342    1.4821 O   0  0
    8.3314   -3.8185    0.0791 Cl  0  0
   -2.3006    6.6799   -0.0078 Cl  0  0
    0.6374    6.7261   -0.1334 H   0  0
   -2.5900    3.8834    0.0615 H   0  0
   -0.9209    2.0658    0.1280 H   0  0
    3.1460    5.9164   -0.1595 H   0  0
    6.1157    2.6035   -0.1444 H   0  0
    8.4434    3.3430    0.0010 H   0  0
    8.9520    5.7815    0.1075 H   0  0
    7.0746    7.4037    0.0586 H   0  0
    4.7265    6.6344   -0.0968 H   0  0
    3.5234   -2.1304    0.0027 H   0  0
    5.5097   -3.2186    0.1404 H   0  0
    9.2252   -1.0911   -0.0207 H   0  0
    7.9821    1.0315   -0.2291 H   0  0
    0.5964    1.0510   -0.0448 H   0  0
   -1.6196   -0.0227    0.0021 H   0  0
   -1.7994   -2.5016    0.0323 H   0  0
    0.2717   -3.8720    0.0230 H   0  0
    2.4874   -2.7813   -0.0133 H   0  0
  1  2  4  0
  2  3  4  0
  3  4  4  0
  4  5  4  0
  1  6  4  0
  5  7  1  0
  6  5  4  0
  6 10  1  0
  7  8  1  0
  8  9  1  0
  9 10  2  0
  9 11  1  0
 11 12  4  0
 11 16  4  0
 12 13  4  0
 13 14  4  0
 14 15  4  0
 15 16  4  0
  8 17  1  0
 17 18  2  0
 18 19  1  0
 20 21  1  0
  8 21  1  0
 19 22  4  0
 20 19  4  0
 20 25  4  0
 22 23  4  0
 23 24  4  0
 24 25  4  0
 17 26  1  0
 26 27  4  0
 26 31  4  0
 27 28  4  0
 28 29  4  0
 29 30  4  0
 30 31  4  0
  8 32  2  0
 23 33  1  0
  2 34  1  0
  1 35  1  0
  3 36  1  0
  4 37  1  0
 10 38  1  0
 12 39  1  0
 13 40  1  0
 14 41  1  0
 15 42  1  0
 16 43  1  0
 18 44  1  0
 22 45  1  0
 24 46  1  0
 25 47  1  0
 27 48  1  0
 28 49  1  0
 29 50  1  0
 30 51  1  0
 31 52  1  0
M  END
> <Name>
Molecule

> <Clean Energy>
50.9221

> <From>
www.bindingDB.org

> <BindingDB Reactant_set_id>
253499

> <Ligand InChI>
InChI=1S/2C13H10ClNO.O.V/c2*14-11-6-7-13(16)10(8-11)9-15-12-4-2-1-3-5-12;;/h2*1-9,16H;;/q;;;+2/p-2/b2*15-9+;;

> <Ligand InChI Key>
GTKSWSVWLRYRJC-QDXVZHPMSA-L

> <BindingDB MonomerID>
124262

> <BindingDB Ligand Name>
Bis(4-chloro-2-((phenylimino)methyl)phenolate)-oxovanadium(IV) (3)

> <Target Name>
Tyrosine-protein phosphatase non-receptor type 1

> <Target Source Organism According to Curator or DataSource>
Homo sapiens

> <IC50 (nM)>
800

> <pH>
7.2

> <Curation/DataSource>
Curated from the literature by BindingDB

> <Article DOI>
10.1039/c2dt30198a

> <BindingDB Entry DOI>
10.7270/Q2DZ070W

> <PMID>
22864521

> <PubChem AID>
aid1800517

> <Authors>
Han, H; Lu, L; Wang, Q; Zhu, M; Yuan, C; Xing, S; Fu, X

> <Institution>
Shanxi University

> <Link to Ligand in BindingDB>
http://www.bindingdb.org/bind/chemsearch/marvin/MolStructure.jsp?monomerid=124262

> <Link to Ligand-Target Pair in BindingDB>
http://www.bindingdb.org/jsp/dbsearch/PrimarySearch_ki.jsp?energyterm=kJ/mole&tag=pol&polymerid=2622&target=Tyrosine-protein+phosphatase+non-receptor+type+1&column=ki&startPg=0&Increment=50&submit=Sea
rch
http://www.bindingdb.org/jsp/dbsearch/PrimarySearch_ki.jsp?energyterm=kJ/mole&tag=r21&monomerid=124262&enzyme=Tyrosine-protein+phosphatase+non-receptor+type+1&column=ki&startPg=0&Increment=50&submit=S
earch

> <PubChem CID of Ligand>
86766317

> <PubChem SID of Ligand>
225150653

> <Number of Protein Chains in Target (bigger than 1 implies a multichain complex)>
1

> <BindingDB Target Chain Sequence>
MEMEKEFEQIDKSGSWAAIYQDIRHEASDFPCRVAKLPKNKNRNRYRDVSPFDHSRIKLHQEDNDYINASLIKMEEAQRSYILTQGPLPNTCGHFWEMVWEQKSRGVVMLNRVMEKGSLKCAQYWPQKEEKEMIFEDTNLKLTLISEDIKSYYTVRQLELENLTTQETREILHFHYTTWPDFGVPESPASFLNFLFKVRE
SGSLSPEHGPVVVHCSAGIGRSGTFCLADTCLLLMDKRKDPSSVDIKKVLLEMRKFRMGLIQTADQLRFSYLAVIEGAKFIMGDSSVQDQWKELSHEDLEPPPEHIPPPPRPPKRILEPHNGKCREFFPNHQWVKEETQEDKDCPIKEEKGSPLNAAPYGIESMSQDTEVRSRVVGGSLRGAQAASPAKGEPSLPEKDED
HALSYWKPFLVNMCVATVLTAGAYLCYRFLFNSNT

> <PDB ID(s) of Target Chain>
1BZJ,1G7G,1GFY,1JF7,1KAK,1KAV,1LQF,1NL9,1NNY,1NO6,1NZ7,1OEM,1OEO,1OES,1OET,1OEU,1OEV,1ONY,1ONZ,1PH0,1PXH,1PYN,1Q1M,1Q6J,1Q6M,1Q6N,1Q6P,1Q6S,1Q6T,1QXK,1SUG,1T48,1T49,1T4J,1WAX,1XBO,2AZR,2B07,2BGD,2BGE,
2CM2,2CM3,2CM7,2CM8,2CMA,2CMB,2CMC,2CNE,2CNF,2CNG,2CNH,2CNI,2F6T,2F6V,2F6W,2F6Y,2F6Z,2F70,2F71,2FJN,2H4G,2H4K,2HB1,2HNP,2HNQ,2QBP,2QBQ,2QBR,2QBS,2VEU,2VEV,2VEW,2VEX,2VEY,2ZMM,2ZN7,3A5J,3CWE,3D9C,3EAX,
3EB1,3EU0,3I7Z,3I80,3SME,4BJO,4I8N,4QBW,4Y14,5K9V,5K9W,5KA0,5KA1,5T19,6B90,6NTP,6W30,7KEY,7KLX,7LFO,7MN9,7MNA,8DU7,8G65,8G67,8G68,8G69,8G6A,8SKL

> <UniProt (SwissProt) Recommended Name of Target Chain>
Tyrosine-protein phosphatase non-receptor type 1

> <UniProt (SwissProt) Entry Name of Target Chain>
PTN1_HUMAN

> <UniProt (SwissProt) Primary ID of Target Chain>
P18031

> <UniProt (SwissProt) Secondary ID(s) of Target Chain>
Q5TGD8 Q9BQV9 Q9NQQ4

$$$$
Molecule
  SciTegic10242319433D

 61 63  0  0  0  0            999 V2000
   -1.3304    2.7591   -0.0005 C   0  0
    0.0032    2.9058   -0.0005 O   0  0
   -0.1061   -0.1431    0.0001 O   0  0
   -1.9044    3.8398   -0.0007 O   0  0
   -1.4480    0.1254    0.0002 C   0  0
   -2.1286    1.4708   -0.0001 C   0  0
   -3.5043    1.4658   -0.0001 C   0  0
   -4.2303    0.1924    0.0003 C   0  0
   -3.6016   -0.9690    0.0006 C   0  0
   -2.1810   -0.9864    0.0005 C   0  0
    1.0503    2.0723   -0.0006 C   0  0
    1.0311    0.5930    0.0007 C   0  0
    2.2247   -0.0738   -0.0004 C   0  0
    3.5239    0.7253    0.0008 C   0  0
    3.4640    2.0530   -0.0008 C   0  0
    2.2081    2.7175    0.0000 C   0  0
   -4.3099   -2.1860    0.0009 O   0  0
   -5.7300   -1.9716    0.0009 C   0  0
   -4.4276    2.6696   -0.0004 C   0  0
   -4.0417    3.8357   -0.0008 O   0  0
   -5.9069    2.4568   -0.0001 C   0  0
   -6.5623    3.8495   -0.0004 C   0  0
   -8.0898    3.7301   -0.0001 C   0  0
   -8.6966    5.1458   -0.0004 C   0  0
    4.6186    2.8252   -0.0002 O   0  0
    2.3548   -1.6480    0.0008 C   0  0
    1.0852   -2.5266    0.0003 C   0  0
    1.4405   -4.0152    0.0006 C   0  0
    0.1275   -4.8202    0.0002 C   0  0
    0.4391   -6.3252    0.0003 C   0  0
    4.9001    0.0775    0.0003 C   0  0
    5.0592   -1.1469    0.0008 O   0  0
    6.0421    0.8727    0.0003 O   0  0
   -5.3202    0.2044    0.0003 H   0  0
   -1.6701   -1.9492    0.0007 H   0  0
    2.1963    3.8074    0.0011 H   0  0
   -6.2431   -2.9333    0.0012 H   0  0
   -6.0131   -1.4096   -0.8891 H   0  0
   -6.0131   -1.4091    0.8907 H   0  0
   -6.2053    1.9027   -0.8901 H   0  0
   -6.2050    1.9032    0.8902 H   0  0
   -6.2460    4.3936    0.8896 H   0  0
   -6.2463    4.3932   -0.8907 H   0  0
   -8.4155    3.1916   -0.8900 H   0  0
   -8.4152    3.1920    0.8902 H   0  0
   -9.7843    5.0754   -0.0002 H   0  0
   -8.3679    5.6824   -0.8904 H   0  0
   -8.3676    5.6828    0.8893 H   0  0
    4.6347    3.4321   -0.8569 H   0  0
    2.9243   -1.9174   -0.8887 H   0  0
    2.9228   -1.9162    0.8916 H   0  0
    0.4972   -2.3017    0.8902 H   0  0
    0.4980   -2.3018   -0.8901 H   0  0
    2.0219   -4.2563   -0.8893 H   0  0
    2.0212   -4.2561    0.8910 H   0  0
   -0.4502   -4.5704    0.8901 H   0  0
   -0.4496   -4.5704   -0.8902 H   0  0
   -0.4933   -6.8898    0.0001 H   0  0
    1.0156   -6.5773    0.8904 H   0  0
    1.0162   -6.5774   -0.8893 H   0  0
    6.0467    1.4794   -0.8567 H   0  0
 15 16  1  0
 16 11  2  0
 12  3  1  0
  9 17  1  0
  7  8  1  0
 17 18  1  0
  5  3  1  0
  7 19  1  0
  8  9  2  0
 19 20  2  0
  1  2  1  0
 19 21  1  0
  9 10  1  0
 21 22  1  0
 10  5  2  0
 22 23  1  0
  1  4  2  0
 23 24  1  0
  2 11  1  0
 15 25  1  0
 11 12  1  0
 13 26  1  0
  1  6  1  0
 26 27  1  0
 12 13  2  0
 27 28  1  0
  5  6  1  0
 28 29  1  0
 13 14  1  0
 29 30  1  0
 14 31  1  0
 14 15  2  0
 31 32  2  0
  6  7  2  0
 31 33  1  0
  8 34  1  0
 10 35  1  0
 16 36  1  0
 18 37  1  0
 18 38  1  0
 18 39  1  0
 21 40  1  0
 21 41  1  0
 22 42  1  0
 22 43  1  0
 23 44  1  0
 23 45  1  0
 24 46  1  0
 24 47  1  0
 24 48  1  0
 25 49  1  0
 26 50  1  0
 26 51  1  0
 27 52  1  0
 27 53  1  0
 28 54  1  0
 28 55  1  0
 29 56  1  0
 29 57  1  0
 30 58  1  0
 30 59  1  0
 30 60  1  0
 33 61  1  0
M  END
> <Name>
Molecule

> <Clean Energy>
29.9789

> <From>
www.bindingDB.org

> <BindingDB Reactant_set_id>
51097124

> <Ligand InChI>
InChI=1S/C25H28O8/c1-4-6-8-9-15-21(24(28)29)18(27)13-20-23(15)32-19-12-14(31-3)11-16(17(26)10-7-5-2)22(19)25(30)33-20/h11-13,27H,4-10H2,1-3H3,(H,28,29)

> <Ligand InChI Key>
JHEWMLHQNRHTQX-UHFFFAOYSA-N

> <BindingDB MonomerID>
50294526

> <BindingDB Ligand Name>
CHEMBL551842::cid_73157::lobaric acid

> <Target Name>
Tyrosine-protein phosphatase non-receptor type 1

> <Target Source Organism According to Curator or DataSource>
Homo sapiens

> <IC50 (nM)>
800

> <Curation/DataSource>
ChEMBL

> <Article DOI>
10.1021/acs.jnatprod.8b00227

> <BindingDB Entry DOI>
10.7270/Q2X92DTK

> <PMID>
29878768

> <Authors>
Kim, TK; Kim, JE; Youn, UJ; Han, SJ; Kim, IC; Cho, CG; Yim, JH

> <Institution>
Korea Polar Research Institute

> <Link to Ligand in BindingDB>
http://www.bindingdb.org/bind/chemsearch/marvin/MolStructure.jsp?monomerid=50294526

> <Link to Ligand-Target Pair in BindingDB>
http://www.bindingdb.org/jsp/dbsearch/PrimarySearch_ki.jsp?energyterm=kJ/mole&tag=pol&polymerid=2622&target=Tyrosine-protein+phosphatase+non-receptor+type+1&column=ki&startPg=0&Increment=50&submit=Sea
rch
http://www.bindingdb.org/jsp/dbsearch/PrimarySearch_ki.jsp?energyterm=kJ/mole&tag=r21&monomerid=50294526&enzyme=Tyrosine-protein+phosphatase+non-receptor+type+1&column=ki&startPg=0&Increment=50&submit
=Search

> <PubChem CID of Ligand>
73157

> <PubChem SID of Ligand>
104136057

> <ChEMBL ID of Ligand>
CHEMBL551842

> <ZINC ID of Ligand>
ZINC02139624

> <Number of Protein Chains in Target (bigger than 1 implies a multichain complex)>
1

> <BindingDB Target Chain Sequence>
MEMEKEFEQIDKSGSWAAIYQDIRHEASDFPCRVAKLPKNKNRNRYRDVSPFDHSRIKLHQEDNDYINASLIKMEEAQRSYILTQGPLPNTCGHFWEMVWEQKSRGVVMLNRVMEKGSLKCAQYWPQKEEKEMIFEDTNLKLTLISEDIKSYYTVRQLELENLTTQETREILHFHYTTWPDFGVPESPASFLNFLFKVRE
SGSLSPEHGPVVVHCSAGIGRSGTFCLADTCLLLMDKRKDPSSVDIKKVLLEMRKFRMGLIQTADQLRFSYLAVIEGAKFIMGDSSVQDQWKELSHEDLEPPPEHIPPPPRPPKRILEPHNGKCREFFPNHQWVKEETQEDKDCPIKEEKGSPLNAAPYGIESMSQDTEVRSRVVGGSLRGAQAASPAKGEPSLPEKDED
HALSYWKPFLVNMCVATVLTAGAYLCYRFLFNSNT

> <PDB ID(s) of Target Chain>
1BZJ,1G7G,1GFY,1JF7,1KAK,1KAV,1LQF,1NL9,1NNY,1NO6,1NZ7,1OEM,1OEO,1OES,1OET,1OEU,1OEV,1ONY,1ONZ,1PH0,1PXH,1PYN,1Q1M,1Q6J,1Q6M,1Q6N,1Q6P,1Q6S,1Q6T,1QXK,1SUG,1T48,1T49,1T4J,1WAX,1XBO,2AZR,2B07,2BGD,2BGE,
2CM2,2CM3,2CM7,2CM8,2CMA,2CMB,2CMC,2CNE,2CNF,2CNG,2CNH,2CNI,2F6T,2F6V,2F6W,2F6Y,2F6Z,2F70,2F71,2FJN,2H4G,2H4K,2HB1,2HNP,2HNQ,2QBP,2QBQ,2QBR,2QBS,2VEU,2VEV,2VEW,2VEX,2VEY,2ZMM,2ZN7,3A5J,3CWE,3D9C,3EAX,
3EB1,3EU0,3I7Z,3I80,3SME,4BJO,4I8N,4QBW,4Y14,5K9V,5K9W,5KA0,5KA1,5T19,6B90,6NTP,6W30,7KEY,7KLX,7LFO,7MN9,7MNA,8DU7,8G65,8G67,8G68,8G69,8G6A,8SKL

> <UniProt (SwissProt) Recommended Name of Target Chain>
Tyrosine-protein phosphatase non-receptor type 1

> <UniProt (SwissProt) Entry Name of Target Chain>
PTN1_HUMAN

> <UniProt (SwissProt) Primary ID of Target Chain>
P18031

> <UniProt (SwissProt) Secondary ID(s) of Target Chain>
Q5TGD8 Q9BQV9 Q9NQQ4

$$$$
Molecule
  SciTegic10242319433D

 64 67  0  0  0  0            999 V2000
    6.8975    2.4992    0.1296 P   0  0
    5.6004    3.4119   -0.4513 C   0  0
    1.0133   -1.3641   -0.1441 C   0  0  2  0  0  0
   -0.2672   -0.7967    0.6102 C   0  0
    3.4252   -7.8487   -0.3445 C   0  0
    4.4551    2.4722   -0.7770 C   0  0
    1.5035   -0.7097   -1.5325 C   0  0
    0.4294   -2.8705   -0.2141 C   0  0
    6.5230    1.8428    1.2855 O   0  0
    2.3001   -1.4009    0.7657 C   0  0
    2.6715   -6.5923   -0.4301 C   0  0
   -0.7300   -1.5757    1.4488 O   0  0
   -1.1876    0.3609    0.2911 C   0  0
    6.0412    4.0224   -1.6026 F   0  0
    5.2291    4.3382    0.5030 F   0  0
    4.5124   -7.9641   -0.9186 O   0  0
    8.0952    3.4332    0.4394 O   0  0
    7.3515    1.4504   -0.9217 O   0  0
    3.3213    2.4947   -0.0748 C   0  0
    4.6122    1.5048   -1.8517 C   0  0
    3.1566   -5.4575   -1.2454 C   0  0
    1.5468   -6.4707    0.2600 C   0  0
    1.2496   -4.1629   -0.4533 C   0  0
    2.4329    0.5731   -1.3213 C   0  0
    2.9441   -8.8906    0.4507 O   0  0
    2.2713    1.4858   -0.3478 C   0  0
    2.4765   -4.3026   -1.2665 C   0  0
    0.8248   -5.2131    0.2510 C   0  0
    3.6592    0.6177   -2.1152 C   0  0
    2.2992   -0.8809    1.9909 C   0  0
    3.6012   -1.8699    0.2014 C   0  0
   -2.3933    0.3094    0.8747 C   0  0
   -0.8784    1.5062   -0.5637 C   0  0
    4.7338   -1.7846    0.8839 C   0  0
    3.5668   -0.8064    2.7512 C   0  0
   -1.7738    2.4803   -0.7393 C   0  0
   -3.3876    1.3596    0.6656 C   0  0
   -3.0911    2.4037   -0.0997 C   0  0
    4.7160   -1.2261    2.2173 C   0  0
    2.0658   -1.4584   -2.0904 H   0  0
    0.6255   -0.4123   -2.1059 H   0  0
   -0.0721   -3.0253    0.7413 H   0  0
   -0.3103   -2.8514   -1.0144 H   0  0
    8.3860    3.9327   -0.4372 H   0  0
    6.5536    0.8030   -1.1381 H   0  0
    3.1682    3.2507    0.6953 H   0  0
    5.5241    1.5077   -2.4488 H   0  0
    4.0701   -5.5607   -1.8309 H   0  0
    1.1647   -7.3150    0.8338 H   0  0
    2.8717   -8.5666    1.4468 H   0  0
    1.3579    1.4836    0.2470 H   0  0
    2.8258   -3.4717   -1.8794 H   0  0
   -0.0905   -5.1235    0.8360 H   0  0
    3.7937   -0.0872   -2.9356 H   0  0
    1.3724   -0.5128    2.4308 H   0  0
    3.6196   -2.2951   -0.8021 H   0  0
   -2.6374   -0.5348    1.5197 H   0  0
    0.0898    1.5648   -1.0609 H   0  0
    5.6690   -2.1318    0.4447 H   0  0
    3.5619   -0.4024    3.7635 H   0  0
   -1.5241    3.3390   -1.3625 H   0  0
   -4.3684    1.2864    1.1356 H   0  0
   -3.8218    3.1981   -0.2514 H   0  0
    5.6418   -1.1477    2.7872 H   0  0
  2  1  1  0
  3  7  1  0
  4  3  1  0
  5 11  1  0
  6  2  1  0
  7 24  1  0
  8  3  1  0
  9  1  2  0
 10  3  1  0
 11 22  2  0
 12  4  2  0
 13  4  1  0
 14  2  1  0
 15  2  1  0
 16  5  2  0
 17  1  1  0
 18  1  1  0
 19  6  2  0
 20  6  1  0
 21 27  2  0
 22 28  1  0
 23  8  1  0
 24 29  1  0
 25  5  1  0
 26 19  1  0
 27 23  1  0
 28 23  2  0
 29 20  2  0
 30 10  2  0
 31 10  1  0
 32 13  2  0
 33 13  1  0
 34 31  2  0
 35 30  1  0
 36 33  2  0
 37 32  1  0
 38 36  1  0
 39 34  1  0
 26 24  2  0
 35 39  2  0
 21 11  1  0
 37 38  2  0
  7 40  1  0
  7 41  1  0
  8 42  1  0
  8 43  1  0
 17 44  1  0
 18 45  1  0
 19 46  1  0
 20 47  1  0
 21 48  1  0
 22 49  1  0
 25 50  1  0
 26 51  1  0
 27 52  1  0
 28 53  1  0
 29 54  1  0
 30 55  1  0
 31 56  1  0
 32 57  1  0
 33 58  1  0
 34 59  1  0
 35 60  1  0
 36 61  1  0
 37 62  1  0
 38 63  1  0
 39 64  1  0
M  END
> <Name>
Molecule

> <Clean Energy>
83.0013

> <From>
www.bindingDB.org

> <BindingDB Reactant_set_id>
50261726

> <Ligand InChI>
InChI=1S/C30H25F2O6P/c31-30(32,39(36,37)38)26-17-13-22(14-18-26)20-29(25-9-5-2-6-10-25,27(33)23-7-3-1-4-8-23)19-21-11-15-24(16-12-21)28(34)35/h1-18H,19-20H2,(H,34,35)(H2,36,37,38)

> <Ligand InChI Key>
NAUCBJQHAWOWPM-UHFFFAOYSA-N

> <BindingDB MonomerID>
50142309

> <BindingDB Ligand Name>
4-{2-[4-(Difluoro-phosphono-methyl)-benzyl]-3-oxo-2,3-diphenyl-propyl}-benzoic acid::CHEMBL8660

> <Target Name>
Tyrosine-protein phosphatase non-receptor type 1

> <Target Source Organism According to Curator or DataSource>
Homo sapiens

> <IC50 (nM)>
800

> <Curation/DataSource>
ChEMBL

> <Article DOI>
10.1016/j.bmcl.2003.11.048

> <BindingDB Entry DOI>
10.7270/Q28C9VPM

> <PMID>
15013019

> <Authors>
Dufresne, C; Roy, P; Wang, Z; Asante-Appiah, E; Cromlish, W; Boie, Y; Forghani, F; Desmarais, S; Wang, Q; Skorey, K; Waddleton, D; Ramachandran, C; Kennedy, BP; Xu, L; Gordon, R; Chan, CC; Leblanc, Y

> <Institution>
Merck Frosst Centre for Therapeutic Research

> <Link to Ligand in BindingDB>
http://www.bindingdb.org/bind/chemsearch/marvin/MolStructure.jsp?monomerid=50142309

> <Link to Ligand-Target Pair in BindingDB>
http://www.bindingdb.org/jsp/dbsearch/PrimarySearch_ki.jsp?energyterm=kJ/mole&tag=pol&polymerid=2622&target=Tyrosine-protein+phosphatase+non-receptor+type+1&column=ki&startPg=0&Increment=50&submit=Sea
rch
http://www.bindingdb.org/jsp/dbsearch/PrimarySearch_ki.jsp?energyterm=kJ/mole&tag=r21&monomerid=50142309&enzyme=Tyrosine-protein+phosphatase+non-receptor+type+1&column=ki&startPg=0&Increment=50&submit
=Search

> <PubChem CID of Ligand>
21265708

> <PubChem SID of Ligand>
104031700

> <ChEMBL ID of Ligand>
CHEMBL8660

> <ZINC ID of Ligand>
ZINC14128041

> <Number of Protein Chains in Target (bigger than 1 implies a multichain complex)>
1

> <BindingDB Target Chain Sequence>
MEMEKEFEQIDKSGSWAAIYQDIRHEASDFPCRVAKLPKNKNRNRYRDVSPFDHSRIKLHQEDNDYINASLIKMEEAQRSYILTQGPLPNTCGHFWEMVWEQKSRGVVMLNRVMEKGSLKCAQYWPQKEEKEMIFEDTNLKLTLISEDIKSYYTVRQLELENLTTQETREILHFHYTTWPDFGVPESPASFLNFLFKVRE
SGSLSPEHGPVVVHCSAGIGRSGTFCLADTCLLLMDKRKDPSSVDIKKVLLEMRKFRMGLIQTADQLRFSYLAVIEGAKFIMGDSSVQDQWKELSHEDLEPPPEHIPPPPRPPKRILEPHNGKCREFFPNHQWVKEETQEDKDCPIKEEKGSPLNAAPYGIESMSQDTEVRSRVVGGSLRGAQAASPAKGEPSLPEKDED
HALSYWKPFLVNMCVATVLTAGAYLCYRFLFNSNT

> <PDB ID(s) of Target Chain>
1BZJ,1G7G,1GFY,1JF7,1KAK,1KAV,1LQF,1NL9,1NNY,1NO6,1NZ7,1OEM,1OEO,1OES,1OET,1OEU,1OEV,1ONY,1ONZ,1PH0,1PXH,1PYN,1Q1M,1Q6J,1Q6M,1Q6N,1Q6P,1Q6S,1Q6T,1QXK,1SUG,1T48,1T49,1T4J,1WAX,1XBO,2AZR,2B07,2BGD,2BGE,
2CM2,2CM3,2CM7,2CM8,2CMA,2CMB,2CMC,2CNE,2CNF,2CNG,2CNH,2CNI,2F6T,2F6V,2F6W,2F6Y,2F6Z,2F70,2F71,2FJN,2H4G,2H4K,2HB1,2HNP,2HNQ,2QBP,2QBQ,2QBR,2QBS,2VEU,2VEV,2VEW,2VEX,2VEY,2ZMM,2ZN7,3A5J,3CWE,3D9C,3EAX,
3EB1,3EU0,3I7Z,3I80,3SME,4BJO,4I8N,4QBW,4Y14,5K9V,5K9W,5KA0,5KA1,5T19,6B90,6NTP,6W30,7KEY,7KLX,7LFO,7MN9,7MNA,8DU7,8G65,8G67,8G68,8G69,8G6A,8SKL

> <UniProt (SwissProt) Recommended Name of Target Chain>
Tyrosine-protein phosphatase non-receptor type 1

> <UniProt (SwissProt) Entry Name of Target Chain>
PTN1_HUMAN

> <UniProt (SwissProt) Primary ID of Target Chain>
P18031

> <UniProt (SwissProt) Secondary ID(s) of Target Chain>
Q5TGD8 Q9BQV9 Q9NQQ4

$$$$
Molecule
  SciTegic10242319433D

 44 47  0  0  0  0            999 V2000
   20.3326  -17.6257   -0.0002 C   0  0
   15.6983  -14.3268   -0.0004 C   0  0
   15.8448  -17.1068   -0.0001 C   0  0
   22.4937  -18.6822    0.0000 C   0  0
   21.7895  -17.5476   -0.0002 C   0  0
   24.5836  -17.4688   -0.0002 C   0  0
    9.4349  -14.6223    0.0004 C   0  0
   18.2419  -17.1057   -0.0002 C   0  0
   16.8908  -14.9302   -0.0004 C   0  0
   13.1740  -14.3853   -0.0001 O   0  0
   19.6971  -18.7247    0.0000 N   0  0
   18.3384  -18.4274    0.0000 C   0  0
   22.4786  -16.2584   -0.0003 C   0  0
   23.8110  -16.2186   -0.0003 C   0  0
   14.4466  -15.1202   -0.0002 C   0  0
   23.9528  -18.6390    0.0000 C   0  0
   10.6738  -14.1289    0.0002 C   0  0
   11.6203  -16.3438    0.0002 C   0  0
   11.8443  -15.0236    0.0001 C   0  0
   16.9647  -16.3913   -0.0002 C   0  0
   24.6816  -19.8251    0.0002 O   0  0
   25.9742  -17.4295   -0.0002 O   0  0
   10.2645  -16.8879    0.0004 C   0  0
   19.4778  -16.5516   -0.0003 O   0  0
   14.5533  -16.4505   -0.0001 C   0  0
    9.2201  -16.0671    0.0005 C   0  0
    7.8267  -16.6255    0.0007 C   0  0
   15.6456  -13.2380   -0.0005 H   0  0
   15.8984  -18.1955    0.0000 H   0  0
   21.9779  -19.6425    0.0001 H   0  0
    8.5803  -13.9457    0.0004 H   0  0
   17.8046  -14.3360   -0.0005 H   0  0
   17.5147  -19.1413    0.0001 H   0  0
   21.9043  -15.3319   -0.0005 H   0  0
   24.3276  -15.2587   -0.0005 H   0  0
   10.8225  -13.0491    0.0001 H   0  0
   12.4688  -17.0280    0.0001 H   0  0
   25.2867  -19.8647   -0.8570 H   0  0
   26.3106  -16.9251   -0.8575 H   0  0
   10.1100  -17.9669    0.0005 H   0  0
   13.6477  -17.0572    0.0000 H   0  0
    7.8712  -17.7145    0.0008 H   0  0
    7.2978  -16.2841   -0.8891 H   0  0
    7.2980  -16.2839    0.8906 H   0  0
  3 25  1  0
  6 14  1  0
 24  1  1  0
 17  7  2  0
  6 22  1  0
 10 19  1  0
  7 26  1  0
 18 19  2  0
  8 20  1  0
 24  8  1  0
 13 14  2  0
 26 23  2  0
 17 19  1  0
 23 18  1  0
 20  3  2  0
 15 10  1  0
  6 16  2  0
  5  1  1  0
 16 21  1  0
  1 11  2  0
 12  8  2  0
  4  5  2  0
  5 13  1  0
 20  9  1  0
 25 15  2  0
  2  9  2  0
 16  4  1  0
 15  2  1  0
 11 12  1  0
 26 27  1  0
  2 28  1  0
  3 29  1  0
  4 30  1  0
  7 31  1  0
  9 32  1  0
 12 33  1  0
 13 34  1  0
 14 35  1  0
 17 36  1  0
 18 37  1  0
 21 38  1  0
 22 39  1  0
 23 40  1  0
 25 41  1  0
 27 42  1  0
 27 43  1  0
 27 44  1  0
M  END
> <Name>
Molecule

> <Clean Energy>
24.5601

> <From>
www.bindingDB.org

> <BindingDB Reactant_set_id>
50991472

> <Ligand InChI>
InChI=1S/C22H17NO4/c1-14-2-7-17(8-3-14)26-18-9-4-15(5-10-18)21-13-23-22(27-21)16-6-11-19(24)20(25)12-16/h2-13,24-25H,1H3

> <Ligand InChI Key>
FYFPNCYMZWMPEG-UHFFFAOYSA-N

> <BindingDB MonomerID>
50282252

> <BindingDB Ligand Name>
CHEMBL4159436

> <Target Name>
Tyrosine-protein phosphatase non-receptor type 1

> <Target Source Organism According to Curator or DataSource>
Homo sapiens

> <IC50 (nM)>
807

> <Curation/DataSource>
ChEMBL

> <Article DOI>
10.1016/j.ejmech.2017.05.007

> <BindingDB Entry DOI>
10.7270/Q2SJ1P4Q

> <PMID>
28511130

> <Authors>
Li, XQ; Xu, Q; Luo, J; Wang, LJ; Jiang, B; Zhang, RS; Shi, DY

> <Institution>
Chinese Academy of Sciences

> <Link to Ligand in BindingDB>
http://www.bindingdb.org/bind/chemsearch/marvin/MolStructure.jsp?monomerid=50282252

> <Link to Ligand-Target Pair in BindingDB>
http://www.bindingdb.org/jsp/dbsearch/PrimarySearch_ki.jsp?energyterm=kJ/mole&tag=pol&polymerid=2622&target=Tyrosine-protein+phosphatase+non-receptor+type+1&column=ki&startPg=0&Increment=50&submit=Sea
rch
http://www.bindingdb.org/jsp/dbsearch/PrimarySearch_ki.jsp?energyterm=kJ/mole&tag=r21&monomerid=50282252&enzyme=Tyrosine-protein+phosphatase+non-receptor+type+1&column=ki&startPg=0&Increment=50&submit
=Search

> <PubChem CID of Ligand>
145958850

> <PubChem SID of Ligand>
104123926

> <ZINC ID of Ligand>
ZINC35851413

> <Number of Protein Chains in Target (bigger than 1 implies a multichain complex)>
1

> <BindingDB Target Chain Sequence>
MEMEKEFEQIDKSGSWAAIYQDIRHEASDFPCRVAKLPKNKNRNRYRDVSPFDHSRIKLHQEDNDYINASLIKMEEAQRSYILTQGPLPNTCGHFWEMVWEQKSRGVVMLNRVMEKGSLKCAQYWPQKEEKEMIFEDTNLKLTLISEDIKSYYTVRQLELENLTTQETREILHFHYTTWPDFGVPESPASFLNFLFKVRE
SGSLSPEHGPVVVHCSAGIGRSGTFCLADTCLLLMDKRKDPSSVDIKKVLLEMRKFRMGLIQTADQLRFSYLAVIEGAKFIMGDSSVQDQWKELSHEDLEPPPEHIPPPPRPPKRILEPHNGKCREFFPNHQWVKEETQEDKDCPIKEEKGSPLNAAPYGIESMSQDTEVRSRVVGGSLRGAQAASPAKGEPSLPEKDED
HALSYWKPFLVNMCVATVLTAGAYLCYRFLFNSNT

> <PDB ID(s) of Target Chain>
1BZJ,1G7G,1GFY,1JF7,1KAK,1KAV,1LQF,1NL9,1NNY,1NO6,1NZ7,1OEM,1OEO,1OES,1OET,1OEU,1OEV,1ONY,1ONZ,1PH0,1PXH,1PYN,1Q1M,1Q6J,1Q6M,1Q6N,1Q6P,1Q6S,1Q6T,1QXK,1SUG,1T48,1T49,1T4J,1WAX,1XBO,2AZR,2B07,2BGD,2BGE,
2CM2,2CM3,2CM7,2CM8,2CMA,2CMB,2CMC,2CNE,2CNF,2CNG,2CNH,2CNI,2F6T,2F6V,2F6W,2F6Y,2F6Z,2F70,2F71,2FJN,2H4G,2H4K,2HB1,2HNP,2HNQ,2QBP,2QBQ,2QBR,2QBS,2VEU,2VEV,2VEW,2VEX,2VEY,2ZMM,2ZN7,3A5J,3CWE,3D9C,3EAX,
3EB1,3EU0,3I7Z,3I80,3SME,4BJO,4I8N,4QBW,4Y14,5K9V,5K9W,5KA0,5KA1,5T19,6B90,6NTP,6W30,7KEY,7KLX,7LFO,7MN9,7MNA,8DU7,8G65,8G67,8G68,8G69,8G6A,8SKL

> <UniProt (SwissProt) Recommended Name of Target Chain>
Tyrosine-protein phosphatase non-receptor type 1

> <UniProt (SwissProt) Entry Name of Target Chain>
PTN1_HUMAN

> <UniProt (SwissProt) Primary ID of Target Chain>
P18031

> <UniProt (SwissProt) Secondary ID(s) of Target Chain>
Q5TGD8 Q9BQV9 Q9NQQ4

$$$$
Molecule
  SciTegic10242319433D

 59 62  0  0  0  0            999 V2000
    6.1190   -9.1387    0.3883 C   0  0
    6.0110  -10.5599    0.0871 C   0  0
    7.1336  -11.2772   -0.0808 C   0  0
    8.4741  -10.6671    0.0224 C   0  0
    8.5781   -9.3769    0.2872 C   0  0
    7.3241   -8.5680    0.4902 C   0  0
    4.6753  -11.2657   -0.0719 C   0  0
    4.0842  -11.4076    1.1681 F   0  0
    4.8494  -12.5128   -0.6391 F   0  0
    3.8235  -10.4837   -0.8297 F   0  0
    9.8265  -11.8523   -0.3149 S   0  0
   11.6080  -11.5624   -0.6264 N   0  0
    9.3795  -12.3687   -1.6649 O   0  0
    9.6512  -13.0198    0.6309 O   0  0
   12.7038  -10.9284    0.2339 C   0  0  3  0  0  0
   14.0820  -11.5102   -0.4814 C   0  0
   15.5602  -11.0333   -0.1569 C   0  0
   12.5424   -9.4062    0.1995 C   0  0
   16.6174  -11.8471   -0.2904 C   0  0
   18.0302  -11.3084   -0.1307 C   0  0
   18.2002   -9.9879    0.1041 C   0  0
   17.0415   -9.1694    0.2346 C   0  0
   15.8222   -9.6535    0.1262 C   0  0
   19.5679   -9.3045    0.2151 C   0  0  1  0  0  0
   20.7336   -9.9359   -0.4952 C   0  0
   21.7082   -8.9111   -0.0701 C   0  0
   21.1113   -7.7039    0.3697 N   0  0
   19.4483   -7.4709   -0.0858 S   0  0
   22.9096   -9.1563    0.0889 O   0  0
   18.5163   -6.9594    0.9847 O   0  0
   20.2545   -6.2419   -0.4711 O   0  0
   13.4263   -8.6064   -0.2410 N   0  0
   11.4221   -8.7178    0.6048 N   0  0
   11.5126   -7.4511   -0.0505 C   0  0  2  0  0  0
   13.0124   -7.2452   -0.0755 C   0  0
   10.7429   -6.2875    0.5902 C   0  0
    5.2186   -8.5412    0.5305 H   0  0
    7.0528  -12.3419   -0.3000 H   0  0
    9.5578   -8.9044    0.3578 H   0  0
    7.3996   -7.5058    0.7227 H   0  0
   11.6153  -10.9727   -1.5192 H   0  0
   12.6319  -11.2902    1.2595 H   0  0
   14.0763  -12.5829   -0.2876 H   0  0
   13.9497  -11.3326   -1.5486 H   0  0
   16.4629  -12.9025   -0.5149 H   0  0
   18.8900  -11.9744   -0.2042 H   0  0
   17.1691   -8.1049    0.4311 H   0  0
   14.9775   -8.9771    0.2571 H   0  0
   19.8226   -9.3860    1.2718 H   0  0
   20.9719  -10.9313   -0.1206 H   0  0
   20.6023   -9.9758   -1.5765 H   0  0
   21.6495   -6.9806    0.9460 H   0  0
   10.6519   -9.0566    1.2659 H   0  0
   11.1648   -7.5695   -1.0767 H   0  0
   13.3811   -6.8172    0.8567 H   0  0
   13.3244   -6.6194   -0.9117 H   0  0
   10.8920   -5.3837   -0.0005 H   0  0
   11.1092   -6.1232    1.6036 H   0  0
    9.6803   -6.5284    0.6229 H   0  0
 15 18  1  0
  7  9  1  0
 17 19  2  0
  4  5  2  0
 19 20  1  0
  7 10  1  0
 20 21  2  0
  2  3  2  0
 21 22  1  0
  4 11  1  0
 22 23  2  0
 23 17  1  0
 24 25  1  0
  5  6  1  0
 11 12  1  0
  6  1  2  0
 11 13  2  0
  1  2  1  0
 25 26  1  0
 26 27  1  0
 27 28  1  0
 28 24  1  0
 24 21  1  0
 11 14  2  0
 26 29  2  0
  2  7  1  0
 28 30  2  0
 15 12  1  0
 28 31  2  0
 18 32  2  0
  3  4  1  0
 15 16  1  0
 32 35  1  0
 34 33  1  0
 33 18  1  0
  7  8  1  0
 16 17  1  0
 34 35  1  0
 34 36  1  0
  1 37  1  0
  3 38  1  0
  5 39  1  0
  6 40  1  0
 12 41  1  0
 15 42  1  0
 16 43  1  0
 16 44  1  0
 19 45  1  0
 20 46  1  0
 22 47  1  0
 23 48  1  0
 24 49  1  0
 25 50  1  0
 25 51  1  0
 27 52  1  0
 33 53  1  0
 34 54  1  0
 35 55  1  0
 35 56  1  0
 36 57  1  0
 36 58  1  0
 36 59  1  0
M  END
> <Name>
Molecule

> <Clean Energy>
188.603

> <From>
www.bindingDB.org

> <BindingDB Reactant_set_id>
50406928

> <Ligand InChI>
InChI=1S/C22H23F3N4O5S2/c1-13-12-26-21(27-13)18(28-35(31,32)17-4-2-3-16(10-17)22(23,24)25)9-14-5-7-15(8-6-14)19-11-20(30)29-36(19,33)34/h2-8,10,13,18-19,28H,9,11-12H2,1H3,(H,26,27)(H,29,30)/t13-,18?,1
9?/m0/s1

> <Ligand InChI Key>
IKHWPFMJQXXYAP-MDAWKPQNSA-N

> <BindingDB MonomerID>
50228016

> <BindingDB Ligand Name>
CHEMBL253066::N-{1-((S)-5-methyl-4,5-dihydro-1H-imidazol-2-yl)-2-[4-(1,1,3-trioxo-1lambda6-isothiazolidin-5-yl)-phenyl]-ethyl}-3-trifluoromethyl-benzenesulfonamide

> <Target Name>
Tyrosine-protein phosphatase non-receptor type 1

> <Target Source Organism According to Curator or DataSource>
Homo sapiens

> <IC50 (nM)>
810

> <Curation/DataSource>
ChEMBL

> <Article DOI>
10.1016/j.bmcl.2007.11.012

> <BindingDB Entry DOI>
10.7270/Q2BV7GCQ

> <PMID>
18037290

> <Authors>
Douty, B; Wayland, B; Ala, PJ; Bower, MJ; Pruitt, J; Bostrom, L; Wei, M; Klabe, R; Gonneville, L; Wynn, R; Burn, TC; Liu, PC; Combs, AP; Yue, EW

> <Institution>
Incyte Corporation

> <Link to Ligand in BindingDB>
http://www.bindingdb.org/bind/chemsearch/marvin/MolStructure.jsp?monomerid=50228016

> <Link to Ligand-Target Pair in BindingDB>
http://www.bindingdb.org/jsp/dbsearch/PrimarySearch_ki.jsp?energyterm=kJ/mole&tag=pol&polymerid=2622&target=Tyrosine-protein+phosphatase+non-receptor+type+1&column=ki&startPg=0&Increment=50&submit=Sea
rch
http://www.bindingdb.org/jsp/dbsearch/PrimarySearch_ki.jsp?energyterm=kJ/mole&tag=r21&monomerid=50228016&enzyme=Tyrosine-protein+phosphatase+non-receptor+type+1&column=ki&startPg=0&Increment=50&submit
=Search

> <PubChem CID of Ligand>
44446118

> <PubChem SID of Ligand>
104097703

> <ChEMBL ID of Ligand>
CHEMBL253066

> <ZINC ID of Ligand>
ZINC28977443

> <Number of Protein Chains in Target (bigger than 1 implies a multichain complex)>
1

> <BindingDB Target Chain Sequence>
MEMEKEFEQIDKSGSWAAIYQDIRHEASDFPCRVAKLPKNKNRNRYRDVSPFDHSRIKLHQEDNDYINASLIKMEEAQRSYILTQGPLPNTCGHFWEMVWEQKSRGVVMLNRVMEKGSLKCAQYWPQKEEKEMIFEDTNLKLTLISEDIKSYYTVRQLELENLTTQETREILHFHYTTWPDFGVPESPASFLNFLFKVRE
SGSLSPEHGPVVVHCSAGIGRSGTFCLADTCLLLMDKRKDPSSVDIKKVLLEMRKFRMGLIQTADQLRFSYLAVIEGAKFIMGDSSVQDQWKELSHEDLEPPPEHIPPPPRPPKRILEPHNGKCREFFPNHQWVKEETQEDKDCPIKEEKGSPLNAAPYGIESMSQDTEVRSRVVGGSLRGAQAASPAKGEPSLPEKDED
HALSYWKPFLVNMCVATVLTAGAYLCYRFLFNSNT

> <PDB ID(s) of Target Chain>
1BZJ,1G7G,1GFY,1JF7,1KAK,1KAV,1LQF,1NL9,1NNY,1NO6,1NZ7,1OEM,1OEO,1OES,1OET,1OEU,1OEV,1ONY,1ONZ,1PH0,1PXH,1PYN,1Q1M,1Q6J,1Q6M,1Q6N,1Q6P,1Q6S,1Q6T,1QXK,1SUG,1T48,1T49,1T4J,1WAX,1XBO,2AZR,2B07,2BGD,2BGE,
2CM2,2CM3,2CM7,2CM8,2CMA,2CMB,2CMC,2CNE,2CNF,2CNG,2CNH,2CNI,2F6T,2F6V,2F6W,2F6Y,2F6Z,2F70,2F71,2FJN,2H4G,2H4K,2HB1,2HNP,2HNQ,2QBP,2QBQ,2QBR,2QBS,2VEU,2VEV,2VEW,2VEX,2VEY,2ZMM,2ZN7,3A5J,3CWE,3D9C,3EAX,
3EB1,3EU0,3I7Z,3I80,3SME,4BJO,4I8N,4QBW,4Y14,5K9V,5K9W,5KA0,5KA1,5T19,6B90,6NTP,6W30,7KEY,7KLX,7LFO,7MN9,7MNA,8DU7,8G65,8G67,8G68,8G69,8G6A,8SKL

> <UniProt (SwissProt) Recommended Name of Target Chain>
Tyrosine-protein phosphatase non-receptor type 1

> <UniProt (SwissProt) Entry Name of Target Chain>
PTN1_HUMAN

> <UniProt (SwissProt) Primary ID of Target Chain>
P18031

> <UniProt (SwissProt) Secondary ID(s) of Target Chain>
Q5TGD8 Q9BQV9 Q9NQQ4

$$$$
Molecule
  SciTegic10242319433D

 92 98  0  0  0  0            999 V2000
   -1.4980  -21.5569    0.1633 C   0  0
   -1.3858  -18.5217   -0.3889 C   0  0
   -0.1815  -19.2191    0.3225 C   0  0  1  0  0  0
   -0.1848  -20.7103   -0.2218 C   0  0  1  0  0  0
    1.0603  -21.5204    0.2644 C   0  0
    2.3662  -20.8394   -0.2307 C   0  0
    1.2342  -18.5573   -0.1411 C   0  0  2  0  0  0
    2.5208  -19.4098    0.3356 C   0  0  2  0  0  0
    2.8676  -16.5479    0.4669 C   0  0
    1.3802  -17.0657    0.3671 C   0  0
    3.9536  -17.2965    0.1685 C   0  0
    3.8016  -18.7578   -0.3007 C   0  0  1  0  0  0
    5.1065  -19.5746    0.0501 C   0  0
    6.2235  -18.8636   -0.7237 C   0  0
    5.3751  -16.8868    0.6630 C   0  0  1  0  0  0
    6.5651  -17.4332   -0.2016 C   0  0  2  0  0  0
    6.8320  -16.5092   -1.4448 C   0  0
    7.1574  -15.0506   -0.9848 C   0  0
    5.9721  -14.4437   -0.1949 C   0  0
    5.6868  -15.3859    1.0511 C   0  0
    4.7714  -14.2683   -1.1449 C   0  0
    6.3868  -13.0493    0.3165 C   0  0
    7.7425  -17.5156    0.7777 C   0  0
    7.7336  -18.4129    1.6291 O   0  0
    8.8447  -16.6696    0.7117 O   0  0
    2.7682  -19.5026    1.8905 C   0  0
   -0.3794  -19.0737    1.8735 C   0  0
    3.6821  -18.7681   -1.8708 C   0  0
   -1.6025  -22.0091    1.6601 C   0  0
   -1.4411  -22.8814   -0.6349 C   0  0
   -2.7471  -20.6925   -0.1228 C   0  0
   -2.6746  -19.3852   -0.3366 C   0  0
   -4.0234  -18.8900   -0.5527 C   0  0
   -4.8368  -19.8761   -0.4373 N   0  0
   -4.1595  -21.0275   -0.1560 N   0  0
   -4.7730  -22.2299    0.0613 C   0  0
   -6.2576  -22.4197    0.0141 C   0  0
   -4.1054  -23.2370    0.3242 O   0  0
   -7.1062  -21.4174   -0.2150 C   0  0
   -8.5472  -21.6808   -0.2397 C   0  0
   -8.9970  -22.8568   -0.0454 N   0  0
   -8.1298  -23.9373    0.1987 C   0  0
   -6.8109  -23.7530    0.2331 C   0  0
   -1.1233  -18.3452   -1.4320 H   0  0
   -1.5809  -17.5691    0.1034 H   0  0
   -0.1366  -20.6603   -1.3096 H   0  0
    1.0635  -21.5571    1.3538 H   0  0
    1.0089  -22.5338   -0.1337 H   0  0
    3.2189  -21.4388    0.0884 H   0  0
    2.3453  -20.7868   -1.3192 H   0  0
    1.2429  -18.5338   -1.2309 H   0  0
    3.0298  -15.5219    0.7974 H   0  0
    0.8402  -16.4173   -0.3228 H   0  0
    0.9298  -16.9986    1.3575 H   0  0
    5.3022  -19.5462    1.1220 H   0  0
    5.0116  -20.6105   -0.2752 H   0  0
    7.1243  -19.4738   -0.6580 H   0  0
    5.9155  -18.7807   -1.7660 H   0  0
    5.4800  -17.4210    1.6073 H   0  0
    7.6767  -16.9036   -2.0097 H   0  0
    5.9451  -16.4957   -2.0782 H   0  0
    8.0408  -15.0664   -0.3465 H   0  0
    7.3538  -14.4351   -1.8627 H   0  0
    4.8297  -14.9868    1.5935 H   0  0
    6.5642  -15.3741    1.6978 H   0  0
    4.4591  -15.2427   -1.5205 H   0  0
    5.0595  -13.6322   -1.9819 H   0  0
    3.9450  -13.8057   -0.6052 H   0  0
    7.2365  -13.1474    0.9921 H   0  0
    5.5515  -12.5935    0.8481 H   0  0
    6.6660  -12.4200   -0.5286 H   0  0
    9.3188  -16.7837   -0.2183 H   0  0
    1.8989  -19.9514    2.3711 H   0  0
    2.9297  -18.5028    2.2935 H   0  0
    3.6472  -20.1178    2.0830 H   0  0
   -1.3301  -19.5217    2.1626 H   0  0
   -0.3793  -18.0175    2.1429 H   0  0
    0.4336  -19.5809    2.3931 H   0  0
    4.5726  -18.3150   -2.3064 H   0  0
    2.8017  -18.2005   -2.1724 H   0  0
    3.5892  -19.7958   -2.2219 H   0  0
   -0.7404  -22.6254    1.9150 H   0  0
   -2.5160  -22.5863    1.8029 H   0  0
   -1.6237  -21.1305    2.3050 H   0  0
   -0.5333  -23.4251   -0.3736 H   0  0
   -1.4384  -22.6629   -1.7028 H   0  0
   -2.3116  -23.4906   -0.3914 H   0  0
   -4.2973  -17.8586   -0.7747 H   0  0
   -6.7303  -20.4081   -0.3829 H   0  0
   -9.2419  -20.8619   -0.4265 H   0  0
   -8.5406  -24.9338    0.3610 H   0  0
   -6.1464  -24.5955    0.4243 H   0  0
 32  2  1  0
 19 21  1  0
  7 10  1  0
 19 22  1  0
  8 12  1  0
 16 23  1  0
 11  9  2  0
 23 24  2  0
  9 10  1  0
 23 25  1  0
 12 11  1  0
  8 26  1  0
 31  1  1  0
  3 27  1  0
  4  1  1  0
  3  7  1  0
  4  5  1  0
 15 11  1  0
 12 28  1  0
 12 13  1  0
  1 29  1  0
 13 14  1  0
  1 30  1  0
 31 32  2  0
 16 14  1  0
 15 16  1  0
  5  6  1  0
  8  6  1  0
  7  8  1  0
 32 33  1  0
 33 34  2  0
 34 35  1  0
 35 31  1  0
  3  2  1  0
 35 36  1  0
  3  4  1  0
 36 37  1  0
 36 38  2  0
 15 20  1  0
 37 39  2  0
 16 17  1  0
 39 40  1  0
 17 18  1  0
 40 41  2  0
 18 19  1  0
 41 42  1  0
 19 20  1  0
 42 43  2  0
 43 37  1  0
  2 44  1  0
  2 45  1  0
  4 46  1  0
  5 47  1  0
  5 48  1  0
  6 49  1  0
  6 50  1  0
  7 51  1  0
  9 52  1  0
 10 53  1  0
 10 54  1  0
 13 55  1  0
 13 56  1  0
 14 57  1  0
 14 58  1  0
 15 59  1  0
 17 60  1  0
 17 61  1  0
 18 62  1  0
 18 63  1  0
 20 64  1  0
 20 65  1  0
 21 66  1  0
 21 67  1  0
 21 68  1  0
 22 69  1  0
 22 70  1  0
 22 71  1  0
 25 72  1  0
 26 73  1  0
 26 74  1  0
 26 75  1  0
 27 76  1  0
 27 77  1  0
 27 78  1  0
 28 79  1  0
 28 80  1  0
 28 81  1  0
 29 82  1  0
 29 83  1  0
 29 84  1  0
 30 85  1  0
 30 86  1  0
 30 87  1  0
 33 88  1  0
 39 89  1  0
 40 90  1  0
 42 91  1  0
 43 92  1  0
M  END
> <Name>
Molecule

> <Clean Energy>
148.816

> <From>
www.bindingDB.org

> <BindingDB Reactant_set_id>
50533708

> <Ligand InChI>
InChI=1S/C37H49N3O3/c1-32(2)14-16-37(31(42)43)17-15-35(6)25(26(37)21-32)8-9-28-34(5)20-24-22-39-40(30(41)23-11-18-38-19-12-23)29(24)33(3,4)27(34)10-13-36(28,35)7/h8,11-12,18-19,22,26-28H,9-10,13-17,20
-21H2,1-7H3,(H,42,43)/t26-,27-,28+,34-,35+,36+,37-/m0/s1

> <Ligand InChI Key>
LAMFGHKKSASHDM-BXEYLZRDSA-N

> <BindingDB MonomerID>
50299745

> <BindingDB Ligand Name>
(4aS,6aS,6bR,8aR,13aR,13bR,15bS)-10-isonicotinoyl-2,2,6a,6b,9,9,13a-heptamethyl-2,3,4,4a,5,6,6a,6b,7,8,8a,9,10,13,13a,13b,14,15b-octadecahydro-1H-chryseno[1,2-f]indazole-4a-carboxylic acid::CHEMBL5835
05

> <Target Name>
Tyrosine-protein phosphatase non-receptor type 1

> <Target Source Organism According to Curator or DataSource>
Homo sapiens

> <IC50 (nM)>
810

> <Curation/DataSource>
ChEMBL

> <Article DOI>
10.1016/j.bmcl.2009.10.017

> <BindingDB Entry DOI>
10.7270/Q2BR8S8F

> <PMID>
19846303

> <Authors>
Qiu, WW; Shen, Q; Yang, F; Wang, B; Zou, H; Li, JY; Li, J; Tang, J

> <Institution>
East China Normal University

> <Link to Ligand in BindingDB>
http://www.bindingdb.org/bind/chemsearch/marvin/MolStructure.jsp?monomerid=50299745

> <Link to Ligand-Target Pair in BindingDB>
http://www.bindingdb.org/jsp/dbsearch/PrimarySearch_ki.jsp?energyterm=kJ/mole&tag=pol&polymerid=2622&target=Tyrosine-protein+phosphatase+non-receptor+type+1&column=ki&startPg=0&Increment=50&submit=Sea
rch
http://www.bindingdb.org/jsp/dbsearch/PrimarySearch_ki.jsp?energyterm=kJ/mole&tag=r21&monomerid=50299745&enzyme=Tyrosine-protein+phosphatase+non-receptor+type+1&column=ki&startPg=0&Increment=50&submit
=Search

> <PubChem CID of Ligand>
45482899

> <PubChem SID of Ligand>
104141274

> <ChEMBL ID of Ligand>
CHEMBL583505

> <ZINC ID of Ligand>
ZINC49722973

> <Number of Protein Chains in Target (bigger than 1 implies a multichain complex)>
1

> <BindingDB Target Chain Sequence>
MEMEKEFEQIDKSGSWAAIYQDIRHEASDFPCRVAKLPKNKNRNRYRDVSPFDHSRIKLHQEDNDYINASLIKMEEAQRSYILTQGPLPNTCGHFWEMVWEQKSRGVVMLNRVMEKGSLKCAQYWPQKEEKEMIFEDTNLKLTLISEDIKSYYTVRQLELENLTTQETREILHFHYTTWPDFGVPESPASFLNFLFKVRE
SGSLSPEHGPVVVHCSAGIGRSGTFCLADTCLLLMDKRKDPSSVDIKKVLLEMRKFRMGLIQTADQLRFSYLAVIEGAKFIMGDSSVQDQWKELSHEDLEPPPEHIPPPPRPPKRILEPHNGKCREFFPNHQWVKEETQEDKDCPIKEEKGSPLNAAPYGIESMSQDTEVRSRVVGGSLRGAQAASPAKGEPSLPEKDED
HALSYWKPFLVNMCVATVLTAGAYLCYRFLFNSNT

> <PDB ID(s) of Target Chain>
1BZJ,1G7G,1GFY,1JF7,1KAK,1KAV,1LQF,1NL9,1NNY,1NO6,1NZ7,1OEM,1OEO,1OES,1OET,1OEU,1OEV,1ONY,1ONZ,1PH0,1PXH,1PYN,1Q1M,1Q6J,1Q6M,1Q6N,1Q6P,1Q6S,1Q6T,1QXK,1SUG,1T48,1T49,1T4J,1WAX,1XBO,2AZR,2B07,2BGD,2BGE,
2CM2,2CM3,2CM7,2CM8,2CMA,2CMB,2CMC,2CNE,2CNF,2CNG,2CNH,2CNI,2F6T,2F6V,2F6W,2F6Y,2F6Z,2F70,2F71,2FJN,2H4G,2H4K,2HB1,2HNP,2HNQ,2QBP,2QBQ,2QBR,2QBS,2VEU,2VEV,2VEW,2VEX,2VEY,2ZMM,2ZN7,3A5J,3CWE,3D9C,3EAX,
3EB1,3EU0,3I7Z,3I80,3SME,4BJO,4I8N,4QBW,4Y14,5K9V,5K9W,5KA0,5KA1,5T19,6B90,6NTP,6W30,7KEY,7KLX,7LFO,7MN9,7MNA,8DU7,8G65,8G67,8G68,8G69,8G6A,8SKL

> <UniProt (SwissProt) Recommended Name of Target Chain>
Tyrosine-protein phosphatase non-receptor type 1

> <UniProt (SwissProt) Entry Name of Target Chain>
PTN1_HUMAN

> <UniProt (SwissProt) Primary ID of Target Chain>
P18031

> <UniProt (SwissProt) Secondary ID(s) of Target Chain>
Q5TGD8 Q9BQV9 Q9NQQ4

$$$$
Molecule
  SciTegic10242319433D

 96100  0  0  0  0            999 V2000
   43.2700  -22.8184   -1.2331 O   0  0
   42.8287  -23.5993   -0.0095 S   0  0
   43.3327  -22.8680    1.2207 O   0  0
   18.0366  -23.2089   -1.4030 O   0  0
   18.4787  -23.6625   -0.0244 S   0  0
   17.9760  -22.6466    0.9847 O   0  0
   30.0308  -22.0904    0.0038 C   0  0
   31.4301  -22.0723    0.0065 C   0  0
   32.1601  -20.8787    0.0028 C   0  0
   31.4421  -19.6659   -0.0047 C   0  0
   30.0300  -19.7044   -0.0065 C   0  0
   29.3001  -20.9033   -0.0023 C   0  0
   27.6555  -20.9057   -0.0013 C   0  0
   26.9772  -22.2769   -0.0135 O   0  0
   25.4492  -22.3342    0.0026 C   0  0
   33.7840  -20.9410    0.0074 C   0  0
   34.4025  -22.3059    0.0539 O   0  0
   35.9039  -22.3458    0.0467 C   0  0
   24.6427  -21.1959    0.0335 C   0  0
   23.2452  -21.3042    0.0439 C   0  0
   22.6012  -22.5433    0.0255 C   0  0
   23.4003  -23.6840   -0.0042 C   0  0
   24.7977  -23.5735   -0.0147 C   0  0
   36.5682  -23.5750    0.0876 C   0  0
   37.9652  -23.6593    0.0780 C   0  0
   38.7406  -22.5038    0.0272 C   0  0
   38.0824  -21.2739   -0.0119 C   0  0
   36.6854  -21.1915   -0.0023 C   0  0
   32.1678  -18.2678   -0.0098 C   0  0
   33.4010  -18.2172   -0.0103 O   0  0
   21.0513  -22.6079    0.0229 C   0  0
   20.3152  -23.7410    0.0181 C   0  0
   17.7258  -25.1790    0.2838 O   0  0
   16.2870  -25.0242    0.1612 C   0  0
   15.5675  -26.3810    0.3479 C   0  0
   40.2739  -22.5497    0.0064 C   0  0
   41.0050  -23.6813    0.0310 C   0  0
   43.5611  -25.1516   -0.0606 O   0  0
   45.0001  -24.9933   -0.1045 C   0  0
   45.6996  -26.3707   -0.1598 C   0  0
   31.4716  -17.0936   -0.0126 N   0  0
   32.0900  -15.7307   -0.0181 C   0  0
   33.4693  -15.5289   -0.0360 C   0  0
   34.0102  -14.2440   -0.0405 C   0  0
   33.1999  -13.1109   -0.0270 C   0  0
   31.8199  -13.3114   -0.0093 C   0  0
   31.2760  -14.5989   -0.0053 C   0  0
   33.8871  -11.7960   -0.0312 O   0  0
   33.2239  -10.4784   -0.0130 C   0  0
   34.0505   -9.3552   -0.0170 C   0  0
   33.5242   -8.0664    0.0028 C   0  0
   32.1480   -7.8791    0.0271 C   0  0
   31.3106   -8.9888    0.0303 C   0  0
   31.8451  -10.2752    0.0106 C   0  0
   31.5660   -6.4816    0.0520 C   0  0
   32.4948   -5.5699    0.5153 F   0  0
   30.4079   -6.4648    0.8028 F   0  0
   31.2204   -6.1346   -1.2383 F   0  0
   29.5053  -23.0453    0.0064 H   0  0
   31.9693  -23.0197    0.0118 H   0  0
   29.4832  -18.7615   -0.0114 H   0  0
   27.3237  -20.3797    0.8938 H   0  0
   27.3227  -20.3634   -0.8864 H   0  0
   34.1364  -20.4489   -0.8992 H   0  0
   34.1336  -20.3895    0.8801 H   0  0
   25.1057  -20.2092    0.0496 H   0  0
   22.6439  -20.3953    0.0671 H   0  0
   22.9355  -24.6699   -0.0195 H   0  0
   25.3976  -24.4833   -0.0372 H   0  0
   35.9821  -24.4932    0.1281 H   0  0
   38.4492  -24.6354    0.1104 H   0  0
   38.6698  -20.3566   -0.0508 H   0  0
   36.2028  -20.2147   -0.0334 H   0  0
   20.5114  -21.6610    0.0252 H   0  0
   20.8143  -24.7098    0.0395 H   0  0
   15.9371  -24.3271    0.9226 H   0  0
   16.0537  -24.6298   -0.8278 H   0  0
   14.4912  -26.2384    0.2515 H   0  0
   15.7936  -26.7797    1.3369 H   0  0
   15.9101  -27.0823   -0.4131 H   0  0
   40.8091  -21.6009   -0.0308 H   0  0
   40.5059  -24.6493    0.0752 H   0  0
   45.2699  -24.4192   -0.9910 H   0  0
   45.3287  -24.4607    0.7879 H   0  0
   46.7799  -26.2290   -0.1922 H   0  0
   45.3771  -26.9070   -1.0522 H   0  0
   45.4359  -26.9485    0.7261 H   0  0
   30.4032  -17.1520   -0.0106 H   0  0
   34.1365  -16.3908   -0.0466 H   0  0
   35.0934  -14.1230   -0.0549 H   0  0
   31.1536  -12.4488    0.0017 H   0  0
   30.1929  -14.7207    0.0081 H   0  0
   35.1321   -9.4892   -0.0362 H   0  0
   34.1917   -7.2047   -0.0008 H   0  0
   30.2295   -8.8516    0.0484 H   0  0
   31.1754  -11.1352    0.0136 H   0  0
  2  1  2  0
  3  2  2  0
  5  4  2  0
  6  5  2  0
  7  8  4  0
  8  9  4  0
  9 10  4  0
 10 11  4  0
 11 12  4  0
 12  7  4  0
 12 13  1  0
 13 14  1  0
 14 15  1  0
  9 16  1  0
 16 17  1  0
 17 18  1  0
 15 19  4  0
 19 20  4  0
 20 21  4  0
 21 22  4  0
 22 23  4  0
 23 15  4  0
 18 24  4  0
 24 25  4  0
 25 26  4  0
 26 27  4  0
 27 28  4  0
 28 18  4  0
 10 29  1  0
 29 30  2  0
 21 31  1  0
 31 32  2  0
 32  5  1  0
  5 33  1  0
 33 34  1  0
 34 35  1  0
 26 36  1  0
 36 37  2  0
 37  2  1  0
  2 38  1  0
 38 39  1  0
 39 40  1  0
 29 41  1  0
 41 42  1  0
 42 43  4  0
 43 44  4  0
 44 45  4  0
 45 46  4  0
 46 47  4  0
 47 42  4  0
 45 48  1  0
 48 49  1  0
 49 50  4  0
 50 51  4  0
 51 52  4  0
 52 53  4  0
 53 54  4  0
 54 49  4  0
 52 55  1  0
 55 56  1  0
 55 57  1  0
 55 58  1  0
  7 59  1  0
  8 60  1  0
 11 61  1  0
 13 62  1  0
 13 63  1  0
 16 64  1  0
 16 65  1  0
 19 66  1  0
 20 67  1  0
 22 68  1  0
 23 69  1  0
 24 70  1  0
 25 71  1  0
 27 72  1  0
 28 73  1  0
 31 74  1  0
 32 75  1  0
 34 76  1  0
 34 77  1  0
 35 78  1  0
 35 79  1  0
 35 80  1  0
 36 81  1  0
 37 82  1  0
 39 83  1  0
 39 84  1  0
 40 85  1  0
 40 86  1  0
 40 87  1  0
 41 88  1  0
 43 89  1  0
 44 90  1  0
 46 91  1  0
 47 92  1  0
 50 93  1  0
 51 94  1  0
 53 95  1  0
 54 96  1  0
M  END
> <Name>
Molecule

> <Clean Energy>
46.6998

> <From>
www.bindingDB.org

> <BindingDB Reactant_set_id>
50808738

> <Ligand InChI>
InChI=1S/C42H38F3NO10S2/c1-3-54-57(48,49)25-23-30-6-15-36(16-7-30)52-28-32-5-10-33(29-53-37-17-8-31(9-18-37)24-26-58(50,51)55-4-2)40(27-32)41(47)46-35-13-21-39(22-14-35)56-38-19-11-34(12-20-38)42(43,4
4)45/h5-27H,3-4,28-29H2,1-2H3,(H,46,47)/b25-23+,26-24+

> <Ligand InChI Key>
FDMXZUFKMARWMF-OGGGYYITSA-N

> <BindingDB MonomerID>
50256838

> <BindingDB Ligand Name>
CHEMBL4086737

> <Target Name>
Tyrosine-protein phosphatase non-receptor type 1

> <Target Source Organism According to Curator or DataSource>
Homo sapiens

> <IC50 (nM)>
820

> <Curation/DataSource>
ChEMBL

> <Article DOI>
10.1016/j.bmcl.2017.03.060

> <BindingDB Entry DOI>
10.7270/Q2FR0024

> <PMID>
28372909

> <Authors>
Yang, F; Xie, F; Zhang, Y; Xia, Y; Liu, W; Jiang, F; Lam, C; Qiao, Y; Xie, D; Li, J; Fu, L

> <Institution>
Shanghai Jiao Tong University

> <Link to Ligand in BindingDB>
http://www.bindingdb.org/bind/chemsearch/marvin/MolStructure.jsp?monomerid=50256838

> <Link to Ligand-Target Pair in BindingDB>
http://www.bindingdb.org/jsp/dbsearch/PrimarySearch_ki.jsp?energyterm=kJ/mole&tag=pol&polymerid=2622&target=Tyrosine-protein+phosphatase+non-receptor+type+1&column=ki&startPg=0&Increment=50&submit=Sea
rch
http://www.bindingdb.org/jsp/dbsearch/PrimarySearch_ki.jsp?energyterm=kJ/mole&tag=r21&monomerid=50256838&enzyme=Tyrosine-protein+phosphatase+non-receptor+type+1&column=ki&startPg=0&Increment=50&submit
=Search

> <PubChem CID of Ligand>
137644333

> <PubChem SID of Ligand>
402360895

> <Number of Protein Chains in Target (bigger than 1 implies a multichain complex)>
1

> <BindingDB Target Chain Sequence>
MEMEKEFEQIDKSGSWAAIYQDIRHEASDFPCRVAKLPKNKNRNRYRDVSPFDHSRIKLHQEDNDYINASLIKMEEAQRSYILTQGPLPNTCGHFWEMVWEQKSRGVVMLNRVMEKGSLKCAQYWPQKEEKEMIFEDTNLKLTLISEDIKSYYTVRQLELENLTTQETREILHFHYTTWPDFGVPESPASFLNFLFKVRE
SGSLSPEHGPVVVHCSAGIGRSGTFCLADTCLLLMDKRKDPSSVDIKKVLLEMRKFRMGLIQTADQLRFSYLAVIEGAKFIMGDSSVQDQWKELSHEDLEPPPEHIPPPPRPPKRILEPHNGKCREFFPNHQWVKEETQEDKDCPIKEEKGSPLNAAPYGIESMSQDTEVRSRVVGGSLRGAQAASPAKGEPSLPEKDED
HALSYWKPFLVNMCVATVLTAGAYLCYRFLFNSNT

> <PDB ID(s) of Target Chain>
1BZJ,1G7G,1GFY,1JF7,1KAK,1KAV,1LQF,1NL9,1NNY,1NO6,1NZ7,1OEM,1OEO,1OES,1OET,1OEU,1OEV,1ONY,1ONZ,1PH0,1PXH,1PYN,1Q1M,1Q6J,1Q6M,1Q6N,1Q6P,1Q6S,1Q6T,1QXK,1SUG,1T48,1T49,1T4J,1WAX,1XBO,2AZR,2B07,2BGD,2BGE,
2CM2,2CM3,2CM7,2CM8,2CMA,2CMB,2CMC,2CNE,2CNF,2CNG,2CNH,2CNI,2F6T,2F6V,2F6W,2F6Y,2F6Z,2F70,2F71,2FJN,2H4G,2H4K,2HB1,2HNP,2HNQ,2QBP,2QBQ,2QBR,2QBS,2VEU,2VEV,2VEW,2VEX,2VEY,2ZMM,2ZN7,3A5J,3CWE,3D9C,3EAX,
3EB1,3EU0,3I7Z,3I80,3SME,4BJO,4I8N,4QBW,4Y14,5K9V,5K9W,5KA0,5KA1,5T19,6B90,6NTP,6W30,7KEY,7KLX,7LFO,7MN9,7MNA,8DU7,8G65,8G67,8G68,8G69,8G6A,8SKL

> <UniProt (SwissProt) Recommended Name of Target Chain>
Tyrosine-protein phosphatase non-receptor type 1

> <UniProt (SwissProt) Entry Name of Target Chain>
PTN1_HUMAN

> <UniProt (SwissProt) Primary ID of Target Chain>
P18031

> <UniProt (SwissProt) Secondary ID(s) of Target Chain>
Q5TGD8 Q9BQV9 Q9NQQ4

$$$$
27
  SciTegic10242319433D

 42 44  0  0  0  0            999 V2000
   -3.9778    2.7770    0.0001 C   0  0
   -3.5765    1.4962    0.0001 C   0  0
   -2.0000    1.3969    0.0000 C   0  0
   -1.4250    2.6238    0.0000 C   0  0
   -2.6407    3.7823    0.0000 S   0  0
   -4.5452    0.4282    0.0001 O   0  0
   -3.9909   -0.8818    0.0001 C   0  0
   -5.0394   -1.9428    0.0001 C   0  0
   -6.2357   -1.6378    0.0001 O   0  0
   -4.6574   -3.2829    0.0002 O   0  0
   -5.3749    3.2230    0.0002 C   0  0
   -5.6340    4.4334    0.0002 O   0  0
   -6.4113    2.2943    0.0002 O   0  0
   -0.9923   -0.2696   -0.0001 Br  0  0
    0.0437    2.9576   -0.0001 C   0  0
    1.9359    4.5158   -0.0001 C   0  0
    0.4696    4.2224   -0.0001 C   0  0
    1.0246    1.9011   -0.0002 C   0  0
    2.3181    2.1541   -0.0002 C   0  0
    2.8181    3.5088   -0.0002 C   0  0
    4.2334    3.7623   -0.0002 N   0  0
    5.1636    2.7736    0.0000 C   0  0
    4.8593    1.5785    0.0003 O   0  0
    6.5811    3.0888   -0.0001 C   0  0
    8.4527    4.5787   -0.0005 C   0  0
    7.0132    4.3414   -0.0004 C   0  0
    7.5478    1.9878    0.0002 C   0  0
    9.2900    3.5407   -0.0002 C   0  0
    8.7988    2.2232    0.0001 N   0  0
   -3.3731   -1.0004   -0.8900 H   0  0
   -3.3731   -1.0004    0.8902 H   0  0
   -4.0853   -3.4843   -0.8569 H   0  0
   -6.3421    1.6919   -0.8570 H   0  0
    2.2859    5.5481   -0.0001 H   0  0
   -0.2506    5.0407   -0.0001 H   0  0
    0.6873    0.8646   -0.0002 H   0  0
    3.0246    1.3240   -0.0002 H   0  0
    4.5693    4.7782   -0.0004 H   0  0
    8.8410    5.5971   -0.0007 H   0  0
    6.3102    5.1744   -0.0006 H   0  0
    7.1924    0.9574    0.0004 H   0  0
   10.3659    3.7154   -0.0002 H   0  0
  5  1  1  0
  5  4  1  0
  1  2  2  0
  2  3  1  0
  3  4  2  0
  2  6  1  0
  6  7  1  0
  7  8  1  0
  8 10  1  0
  8  9  2  0
  1 11  1  0
 11 13  1  0
 11 12  2  0
  3 14  1  0
  4 15  1  0
 17 15  2  0
 15 18  1  0
 16 17  1  0
 16 20  2  0
 18 19  2  0
 19 20  1  0
 20 21  1  0
 21 22  1  0
 22 24  1  0
 22 23  2  0
 26 24  2  0
 24 27  1  0
 25 26  1  0
 25 28  2  0
 27 29  2  0
 29 28  1  0
  7 30  1  0
  7 31  1  0
 10 32  1  0
 13 33  1  0
 16 34  1  0
 17 35  1  0
 18 36  1  0
 19 37  1  0
 21 38  1  0
 25 39  1  0
 26 40  1  0
 27 41  1  0
 28 42  1  0
M  END
> <Name>
27

> <Clean Energy>
30.3915

> <From>
www.bindingDB.org

> <BindingDB Reactant_set_id>
50420821

> <Ligand InChI>
InChI=1S/C19H13BrN2O6S/c20-14-15(28-9-13(23)24)17(19(26)27)29-16(14)10-3-5-12(6-4-10)22-18(25)11-2-1-7-21-8-11/h1-8H,9H2,(H,22,25)(H,23,24)(H,26,27)

> <Ligand InChI Key>
PTBNMQSAVVUNTG-UHFFFAOYSA-N

> <BindingDB MonomerID>
14258

> <BindingDB Ligand Name>
4-bromo-3-(carboxymethoxy)-5-[4-(pyridine-3-amido)phenyl]thiophene-2-carboxylic acid::CHEMBL214378::Monocyclic thiophene analog 27

> <Target Name>
Tyrosine-protein phosphatase non-receptor type 1

> <Target Source Organism According to Curator or DataSource>
Homo sapiens

> <IC50 (nM)>
820

> <Curation/DataSource>
ChEMBL

> <Article DOI>
10.1016/j.bmc.2008.06.014

> <BindingDB Entry DOI>
10.7270/Q2PC325T

> <PMID>
18579388

> <Authors>
Ling, Q; Huang, Y; Zhou, Y; Cai, Z; Xiong, B; Zhang, Y; Ma, L; Wang, X; Li, X; Li, J; Shen, J

> <Institution>
Chinese Academy of Sciences

> <Link to Ligand in BindingDB>
http://www.bindingdb.org/bind/chemsearch/marvin/MolStructure.jsp?monomerid=14258

> <Link to Ligand-Target Pair in BindingDB>
http://www.bindingdb.org/jsp/dbsearch/PrimarySearch_ki.jsp?energyterm=kJ/mole&tag=pol&polymerid=2622&target=Tyrosine-protein+phosphatase+non-receptor+type+1&column=ki&startPg=0&Increment=50&submit=Sea
rch
http://www.bindingdb.org/jsp/dbsearch/PrimarySearch_ki.jsp?energyterm=kJ/mole&tag=r21&monomerid=14258&enzyme=Tyrosine-protein+phosphatase+non-receptor+type+1&column=ki&startPg=0&Increment=50&submit=Se
arch

> <PubChem CID of Ligand>
23646672

> <PubChem SID of Ligand>
46514604

> <ChEMBL ID of Ligand>
CHEMBL214378

> <ZINC ID of Ligand>
ZINC14955126

> <Number of Protein Chains in Target (bigger than 1 implies a multichain complex)>
1

> <BindingDB Target Chain Sequence>
MEMEKEFEQIDKSGSWAAIYQDIRHEASDFPCRVAKLPKNKNRNRYRDVSPFDHSRIKLHQEDNDYINASLIKMEEAQRSYILTQGPLPNTCGHFWEMVWEQKSRGVVMLNRVMEKGSLKCAQYWPQKEEKEMIFEDTNLKLTLISEDIKSYYTVRQLELENLTTQETREILHFHYTTWPDFGVPESPASFLNFLFKVRE
SGSLSPEHGPVVVHCSAGIGRSGTFCLADTCLLLMDKRKDPSSVDIKKVLLEMRKFRMGLIQTADQLRFSYLAVIEGAKFIMGDSSVQDQWKELSHEDLEPPPEHIPPPPRPPKRILEPHNGKCREFFPNHQWVKEETQEDKDCPIKEEKGSPLNAAPYGIESMSQDTEVRSRVVGGSLRGAQAASPAKGEPSLPEKDED
HALSYWKPFLVNMCVATVLTAGAYLCYRFLFNSNT

> <PDB ID(s) of Target Chain>
1BZJ,1G7G,1GFY,1JF7,1KAK,1KAV,1LQF,1NL9,1NNY,1NO6,1NZ7,1OEM,1OEO,1OES,1OET,1OEU,1OEV,1ONY,1ONZ,1PH0,1PXH,1PYN,1Q1M,1Q6J,1Q6M,1Q6N,1Q6P,1Q6S,1Q6T,1QXK,1SUG,1T48,1T49,1T4J,1WAX,1XBO,2AZR,2B07,2BGD,2BGE,
2CM2,2CM3,2CM7,2CM8,2CMA,2CMB,2CMC,2CNE,2CNF,2CNG,2CNH,2CNI,2F6T,2F6V,2F6W,2F6Y,2F6Z,2F70,2F71,2FJN,2H4G,2H4K,2HB1,2HNP,2HNQ,2QBP,2QBQ,2QBR,2QBS,2VEU,2VEV,2VEW,2VEX,2VEY,2ZMM,2ZN7,3A5J,3CWE,3D9C,3EAX,
3EB1,3EU0,3I7Z,3I80,3SME,4BJO,4I8N,4QBW,4Y14,5K9V,5K9W,5KA0,5KA1,5T19,6B90,6NTP,6W30,7KEY,7KLX,7LFO,7MN9,7MNA,8DU7,8G65,8G67,8G68,8G69,8G6A,8SKL

> <UniProt (SwissProt) Recommended Name of Target Chain>
Tyrosine-protein phosphatase non-receptor type 1

> <UniProt (SwissProt) Entry Name of Target Chain>
PTN1_HUMAN

> <UniProt (SwissProt) Primary ID of Target Chain>
P18031

> <UniProt (SwissProt) Secondary ID(s) of Target Chain>
Q5TGD8 Q9BQV9 Q9NQQ4

$$$$
Molecule
  SciTegic10242319433D

112117  0  0  0  0            999 V2000
   16.8836  -25.0543   -0.3890 C   0  0  2  0  0  0
   16.9103  -23.6619    0.2952 C   0  0
   15.7447  -26.0056    0.3411 C   0  0  1  0  0  0
   13.0322  -25.9369    0.7426 C   0  0  2  0  0  0
   19.5048  -23.2582   -0.4386 C   0  0  1  0  0  0
   18.0624  -22.6801    0.1103 C   0  0  1  0  0  0
   14.3489  -25.1835    0.2604 C   0  0  1  0  0  0
   12.9348  -27.2806   -0.1281 C   0  0  2  0  0  0
   11.5777  -28.1259    0.1325 C   0  0
   15.8223  -23.1555    0.9011 C   0  0
   20.5354  -23.7136    0.7331 C   0  0
   18.3685  -25.5856   -0.5526 C   0  0
   15.5158  -27.3298   -0.4420 C   0  0
   14.5087  -23.8963    1.1092 C   0  0
   19.2269  -24.4702   -1.3807 C   0  0
   11.7741  -25.0844    0.4202 C   0  0
   14.2444  -28.1424    0.0994 C   0  0
   20.1871  -22.0781   -1.2772 C   0  0
   17.5999  -21.7122   -0.9548 C   0  0
   10.3950  -27.1634   -0.1867 C   0  0  2  0  0  0
   18.5585  -20.4236   -0.8550 C   0  0
   10.4562  -25.8904    0.7295 C   0  0
   20.0227  -20.8495   -0.5142 C   0  0
   16.4452  -24.8579   -1.8818 C   0  0
   16.2224  -26.3546    1.7941 C   0  0
   13.0636  -26.1353    2.2997 C   0  0
    9.1581  -27.8596    0.0086 O   0  0
   18.1271  -19.4311    0.2538 C   0  0
   18.4780  -19.7106   -2.2125 C   0  0
   11.5266  -29.3267   -0.8262 C   0  0
   11.3915  -28.7140    1.5668 C   0  0
   22.0794  -23.7927    0.1995 C   0  0
   23.1209  -23.8268    1.0485 N   0  0
   22.3749  -23.6238   -0.9891 O   0  0
   24.4984  -23.5762    0.5140 C   0  0  2  0  0  0
   25.4801  -24.7162    0.8559 C   0  0
   26.8433  -24.4982    1.0142 O   0  0
   25.0628  -25.8781    0.8995 O   0  0
   24.8907  -22.0657    0.9217 C   0  0
   26.1935  -21.3405    0.4450 C   0  0
   27.2759  -21.9782    0.0156 C   0  0
   28.4880  -21.2333   -0.3627 C   0  0
   28.5439  -19.9088   -0.2988 C   0  0
   27.3077  -19.1530    0.1545 C   0  0
   26.2171  -19.8633    0.5033 C   0  0
   27.2465  -17.7376    0.2117 O   0  0
   25.9606  -17.2582    0.6337 C   0  0
   29.8082  -19.3015   -0.6699 O   0  0
   29.9165  -17.8758   -0.5840 C   0  0
   18.2244  -22.1378    1.0418 H   0  0
   14.1994  -24.8822   -0.7764 H   0  0
   12.9279  -26.9816   -1.1762 H   0  0
   15.8857  -22.1329    1.2730 H   0  0
   20.4820  -22.9915    1.5478 H   0  0
   20.2393  -24.6969    1.0985 H   0  0
   18.8149  -25.7384    0.4300 H   0  0
   18.3639  -26.5278   -1.1007 H   0  0
   15.3583  -27.0924   -1.4942 H   0  0
   16.4021  -27.9559   -0.3390 H   0  0
   13.6932  -23.2191    0.8554 H   0  0
   14.4380  -24.1727    2.1613 H   0  0
   18.6569  -24.1379   -2.2483 H   0  0
   20.1712  -24.9037   -1.7099 H   0  0
   11.7904  -24.1798    1.0281 H   0  0
   11.7874  -24.8135   -0.6356 H   0  0
   14.3673  -28.3432    1.1637 H   0  0
   14.1580  -29.0849   -0.4411 H   0  0
   21.2469  -22.2881   -1.4208 H   0  0
   19.7004  -21.9816   -2.2477 H   0  0
   17.6862  -22.1692   -1.9406 H   0  0
   16.5638  -21.4245   -0.7766 H   0  0
   10.4644  -26.8521   -1.2290 H   0  0
   10.4540  -26.1954    1.7759 H   0  0
    9.5896  -25.2591    0.5327 H   0  0
   20.1398  -21.0321    0.5539 H   0  0
   20.7367  -20.0905   -0.8340 H   0  0
   16.4192  -25.8250   -2.3837 H   0  0
   17.1574  -24.2057   -2.3874 H   0  0
   15.4537  -24.4060   -1.9133 H   0  0
   15.4761  -26.9818    2.2816 H   0  0
   16.3526  -25.4352    2.3650 H   0  0
   17.1709  -26.8897    1.7466 H   0  0
   12.1584  -26.6516    2.6190 H   0  0
   13.1186  -25.1630    2.7893 H   0  0
   13.9357  -26.7293    2.5733 H   0  0
    9.1190  -28.6911   -0.6314 H   0  0
   18.8126  -18.5838    0.2706 H   0  0
   18.1482  -19.9340    1.2207 H   0  0
   17.1166  -19.0761    0.0514 H   0  0
   19.1137  -18.8254   -2.1967 H   0  0
   17.4474  -19.4138   -2.4070 H   0  0
   18.8158  -20.3859   -2.9987 H   0  0
   10.6131  -29.8945   -0.6498 H   0  0
   12.3912  -29.9676   -0.6531 H   0  0
   11.5392  -28.9707   -1.8564 H   0  0
   10.4481  -29.2575    1.6175 H   0  0
   11.3821  -27.9024    2.2944 H   0  0
   12.2140  -29.3931    1.7912 H   0  0
   22.9690  -24.0293    2.0881 H   0  0
   24.4034  -23.5783   -0.5719 H   0  0
   27.2417  -24.1088    0.1241 H   0  0
   24.0641  -21.4432    0.5792 H   0  0
   24.9280  -22.0540    2.0110 H   0  0
   27.2670  -23.0657   -0.0578 H   0  0
   29.3638  -21.7848   -0.7047 H   0  0
   25.3257  -19.3330    0.8384 H   0  0
   25.9692  -16.1686    0.6600 H   0  0
   25.7372  -17.6433    1.6286 H   0  0
   25.1978  -17.5981   -0.0668 H   0  0
   30.9156  -17.5675   -0.8919 H   0  0
   29.7398  -17.5588    0.4439 H   0  0
   29.1768  -17.4146   -1.2383 H   0  0
  2  1  1  0
  3  1  1  0
  4  7  1  0
  5 15  1  0
  6  2  1  0
  7  3  1  0
  8 17  1  0
  9  8  1  0
 10  2  2  0
  5 11  1  0
 12  1  1  0
 13  3  1  0
  7 14  1  0
 15 12  1  0
 16  4  1  0
 17 13  1  0
 18  5  1  0
  6 19  1  0
 20  9  1  0
 21 19  1  0
 22 16  1  0
 23 18  1  0
  1 24  1  0
  3 25  1  0
  4 26  1  0
 20 27  1  0
 28 21  1  0
 29 21  1  0
  5  6  1  0
 14 10  1  0
  8  4  1  0
 21 23  1  0
 20 22  1  0
  9 30  1  0
  9 31  1  0
 11 32  1  0
 32 33  1  0
 32 34  2  0
 33 35  1  0
 35 36  1  0
 36 37  1  0
 36 38  2  0
 35 39  1  0
 39 40  1  0
 40 41  2  0
 41 42  1  0
 42 43  2  0
 43 44  1  0
 44 45  2  0
 45 40  1  0
 46 47  1  0
 44 46  1  0
 48 49  1  0
 43 48  1  0
  6 50  1  0
  7 51  1  0
  8 52  1  0
 10 53  1  0
 11 54  1  0
 11 55  1  0
 12 56  1  0
 12 57  1  0
 13 58  1  0
 13 59  1  0
 14 60  1  0
 14 61  1  0
 15 62  1  0
 15 63  1  0
 16 64  1  0
 16 65  1  0
 17 66  1  0
 17 67  1  0
 18 68  1  0
 18 69  1  0
 19 70  1  0
 19 71  1  0
 20 72  1  0
 22 73  1  0
 22 74  1  0
 23 75  1  0
 23 76  1  0
 24 77  1  0
 24 78  1  0
 24 79  1  0
 25 80  1  0
 25 81  1  0
 25 82  1  0
 26 83  1  0
 26 84  1  0
 26 85  1  0
 27 86  1  0
 28 87  1  0
 28 88  1  0
 28 89  1  0
 29 90  1  0
 29 91  1  0
 29 92  1  0
 30 93  1  0
 30 94  1  0
 30 95  1  0
 31 96  1  0
 31 97  1  0
 31 98  1  0
 33 99  1  0
 35100  1  0
 37101  1  0
 39102  1  0
 39103  1  0
 41104  1  0
 42105  1  0
 45106  1  0
 47107  1  0
 47108  1  0
 47109  1  0
 49110  1  0
 49111  1  0
 49112  1  0
M  END
> <Name>
Molecule

> <Clean Energy>
135.651

> <From>
www.bindingDB.org

> <BindingDB Reactant_set_id>
51186462

> <Ligand InChI>
InChI=1S/C42H63NO6/c1-37(2)18-20-42(25-35(45)43-29(36(46)47)22-26-10-12-30(48-8)31(23-26)49-9)21-19-40(6)27(28(42)24-37)11-13-33-39(5)16-15-34(44)38(3,4)32(39)14-17-41(33,40)7/h10-12,23,28-29,32-34,44
H,13-22,24-25H2,1-9H3,(H,43,45)(H,46,47)/t28-,29?,32-,33+,34-,39-,40+,41+,42+/m0/s1

> <Ligand InChI Key>
LDOULNWSAGCGEJ-NHKCZJEVSA-N

> <BindingDB MonomerID>
50487808

> <BindingDB Ligand Name>
CHEMBL2262829

> <Target Name>
Tyrosine-protein phosphatase non-receptor type 1

> <Target Source Organism According to Curator or DataSource>
Homo sapiens

> <IC50 (nM)>
820

> <Curation/DataSource>
ChEMBL

> <Article DOI>
10.1007/s00044-010-9529-5

> <BindingDB Entry DOI>
10.7270/Q2F76GFZ

> <Authors>
n/a

> <Institution>
n/a

> <Link to Ligand in BindingDB>
http://www.bindingdb.org/bind/chemsearch/marvin/MolStructure.jsp?monomerid=50487808

> <Link to Ligand-Target Pair in BindingDB>
http://www.bindingdb.org/jsp/dbsearch/PrimarySearch_ki.jsp?energyterm=kJ/mole&tag=pol&polymerid=2622&target=Tyrosine-protein+phosphatase+non-receptor+type+1&column=ki&startPg=0&Increment=50&submit=Sea
rch
http://www.bindingdb.org/jsp/dbsearch/PrimarySearch_ki.jsp?energyterm=kJ/mole&tag=r21&monomerid=50487808&enzyme=Tyrosine-protein+phosphatase+non-receptor+type+1&column=ki&startPg=0&Increment=50&submit
=Search

> <PubChem CID of Ligand>
76330317

> <PubChem SID of Ligand>
433955073

> <Number of Protein Chains in Target (bigger than 1 implies a multichain complex)>
1

> <BindingDB Target Chain Sequence>
MEMEKEFEQIDKSGSWAAIYQDIRHEASDFPCRVAKLPKNKNRNRYRDVSPFDHSRIKLHQEDNDYINASLIKMEEAQRSYILTQGPLPNTCGHFWEMVWEQKSRGVVMLNRVMEKGSLKCAQYWPQKEEKEMIFEDTNLKLTLISEDIKSYYTVRQLELENLTTQETREILHFHYTTWPDFGVPESPASFLNFLFKVRE
SGSLSPEHGPVVVHCSAGIGRSGTFCLADTCLLLMDKRKDPSSVDIKKVLLEMRKFRMGLIQTADQLRFSYLAVIEGAKFIMGDSSVQDQWKELSHEDLEPPPEHIPPPPRPPKRILEPHNGKCREFFPNHQWVKEETQEDKDCPIKEEKGSPLNAAPYGIESMSQDTEVRSRVVGGSLRGAQAASPAKGEPSLPEKDED
HALSYWKPFLVNMCVATVLTAGAYLCYRFLFNSNT

> <PDB ID(s) of Target Chain>
1BZJ,1G7G,1GFY,1JF7,1KAK,1KAV,1LQF,1NL9,1NNY,1NO6,1NZ7,1OEM,1OEO,1OES,1OET,1OEU,1OEV,1ONY,1ONZ,1PH0,1PXH,1PYN,1Q1M,1Q6J,1Q6M,1Q6N,1Q6P,1Q6S,1Q6T,1QXK,1SUG,1T48,1T49,1T4J,1WAX,1XBO,2AZR,2B07,2BGD,2BGE,
2CM2,2CM3,2CM7,2CM8,2CMA,2CMB,2CMC,2CNE,2CNF,2CNG,2CNH,2CNI,2F6T,2F6V,2F6W,2F6Y,2F6Z,2F70,2F71,2FJN,2H4G,2H4K,2HB1,2HNP,2HNQ,2QBP,2QBQ,2QBR,2QBS,2VEU,2VEV,2VEW,2VEX,2VEY,2ZMM,2ZN7,3A5J,3CWE,3D9C,3EAX,
3EB1,3EU0,3I7Z,3I80,3SME,4BJO,4I8N,4QBW,4Y14,5K9V,5K9W,5KA0,5KA1,5T19,6B90,6NTP,6W30,7KEY,7KLX,7LFO,7MN9,7MNA,8DU7,8G65,8G67,8G68,8G69,8G6A,8SKL

> <UniProt (SwissProt) Recommended Name of Target Chain>
Tyrosine-protein phosphatase non-receptor type 1

> <UniProt (SwissProt) Entry Name of Target Chain>
PTN1_HUMAN

> <UniProt (SwissProt) Primary ID of Target Chain>
P18031

> <UniProt (SwissProt) Secondary ID(s) of Target Chain>
Q5TGD8 Q9BQV9 Q9NQQ4

$$$$
Molecule
  SciTegic10242319433D

121126  0  0  0  0            999 V2000
   16.0157  -15.4051    0.9199 C   0  0
    5.8851  -18.4489   -0.2053 C   0  0  1  0  0  0
    4.6600  -19.1544    0.0301 O   0  0
    5.9251  -17.1208    0.6339 C   0  0
    7.2354  -16.3098    0.2851 C   0  0
    7.0788  -19.3704    0.1703 C   0  0
    8.4230  -18.5214   -0.1318 C   0  0  2  0  0  0
    9.7294  -19.3601    0.1494 C   0  0
   10.9980  -18.5707   -0.4146 C   0  0
   11.2169  -17.2257    0.3247 C   0  0  1  0  0  0
   11.6641  -17.5384    1.7974 C   0  0
   12.3879  -16.3234   -0.3891 C   0  0  2  0  0  0
   12.0114  -16.1155   -1.8962 C   0  0
   13.8358  -16.9293   -0.4880 C   0  0
   14.8051  -15.8720   -1.2456 C   0  0
   15.1181  -14.7418   -0.2338 C   0  0  2  0  0  0
   16.0334  -13.6345   -0.9306 C   0  0
   15.8694  -12.3974   -0.1481 C   0  0
   14.4877  -11.8306   -0.6524 C   0  0
   13.4248  -13.0229   -0.8838 C   0  0
   13.6866  -14.0369    0.2052 C   0  0  1  0  0  0
   12.4451  -14.9338    0.2866 C   0  0
   11.3470  -14.3747    0.8291 C   0  0
    9.9839  -15.0635    0.9696 C   0  0
    9.8331  -16.3909    0.1746 C   0  0  2  0  0  0
    8.5005  -17.1266    0.6661 C   0  0  1  0  0  0
    8.5101  -17.2350    2.2320 C   0  0
    7.0510  -20.6258   -0.7171 C   0  0
    6.8985  -19.8806    1.6358 C   0  0
   14.6352  -11.0959   -1.9936 C   0  0
   14.0113  -10.8105    0.4153 C   0  0
   17.4402  -15.6905    0.1645 C   0  0
   18.7383  -16.1284    0.9898 C   0  0
   20.0193  -15.7215    0.0944 C   0  0
   21.4341  -16.2094    0.5591 C   0  0
   22.5426  -15.6181    0.0357 N   0  0
   21.5406  -17.1432    1.3602 O   0  0
   23.9630  -16.0121    0.3110 C   0  0  2  0  0  0
   24.8625  -14.8801   -0.2360 C   0  0
   24.2675  -17.4959   -0.2117 C   0  0
   26.0636  -15.1268   -0.8889 O   0  0
   24.4920  -13.7075   -0.1107 O   0  0
   25.6701  -18.1696    0.0024 C   0  0
   25.7602  -19.4893   -0.1661 C   0  0
   27.0500  -20.2216   -0.0265 C   0  0
   26.8884  -17.4359    0.3313 C   0  0
   28.0585  -18.0654    0.4342 C   0  0
   28.1781  -19.5201    0.2450 C   0  0
   27.0325  -21.6254   -0.2038 O   0  0
   25.7066  -22.1120   -0.4576 C   0  0
   29.5271  -20.0591    0.3960 O   0  0
   29.7458  -21.4698    0.2203 C   0  0
   15.5697  -16.3332    1.2774 H   0  0
   16.1472  -14.7187    1.7563 H   0  0
    5.9511  -18.1995   -1.2644 H   0  0
    4.5834  -19.3930    1.0498 H   0  0
    5.0504  -16.5155    0.3960 H   0  0
    5.9215  -17.3635    1.6965 H   0  0
    7.2343  -15.3715    0.8397 H   0  0
    7.2530  -16.1002   -0.7844 H   0  0
    8.4187  -18.2823   -1.1952 H   0  0
    9.8417  -19.5089    1.2234 H   0  0
    9.6537  -20.3280   -0.3461 H   0  0
   11.8847  -19.1914   -0.2866 H   0  0
   10.8448  -18.3691   -1.4748 H   0  0
   12.5989  -18.0987    1.7825 H   0  0
   10.8945  -18.1297    2.2936 H   0  0
   11.8098  -16.6040    2.3396 H   0  0
   12.7807  -15.5173   -2.3843 H   0  0
   11.0534  -15.5999   -1.9641 H   0  0
   11.9377  -17.0846   -2.3899 H   0  0
   14.2193  -17.1224    0.5139 H   0  0
   13.8030  -17.8620   -1.0510 H   0  0
   15.7273  -16.3642   -1.5544 H   0  0
   14.3008  -15.4622   -2.1207 H   0  0
   17.0768  -13.9494   -0.9211 H   0  0
   15.7111  -13.4738   -1.9594 H   0  0
   15.8367  -12.6124    0.9199 H   0  0
   16.6776  -11.6955   -0.3535 H   0  0
   12.4066  -12.6414   -0.8080 H   0  0
   13.5719  -13.4752   -1.8645 H   0  0
   13.8180  -13.5182    1.1548 H   0  0
   11.4336  -13.3524    1.1974 H   0  0
    9.8226  -15.2816    2.0253 H   0  0
    9.2179  -14.3713    0.6199 H   0  0
    9.7071  -16.1382   -0.8782 H   0  0
    7.6023  -17.7362    2.5676 H   0  0
    8.5545  -16.2360    2.6656 H   0  0
    9.3804  -17.8083    2.5516 H   0  0
    7.1729  -20.3364   -1.7608 H   0  0
    6.0974  -21.1388   -0.5918 H   0  0
    7.8629  -21.2934   -0.4284 H   0  0
    6.9094  -19.0324    2.3202 H   0  0
    7.7128  -20.5602    1.8872 H   0  0
    5.9473  -20.4056    1.7238 H   0  0
   14.9698  -11.7973   -2.7578 H   0  0
   15.3671  -10.2947   -1.8910 H   0  0
   13.6733  -10.6737   -2.2848 H   0  0
   13.9006  -11.3140    1.3757 H   0  0
   13.0521  -10.3895    0.1138 H   0  0
   14.7459  -10.0105    0.5076 H   0  0
   17.2528  -16.4824   -0.5607 H   0  0
   17.7022  -14.7715   -0.3598 H   0  0
   18.7683  -15.6068    1.9464 H   0  0
   18.7278  -17.2046    1.1624 H   0  0
   19.8532  -16.1197   -0.9066 H   0  0
   20.0510  -14.6328    0.0521 H   0  0
   22.3864  -14.7976   -0.6330 H   0  0
   24.0871  -16.0234    1.3939 H   0  0
   23.5372  -18.1470    0.2687 H   0  0
   24.0929  -17.4848   -1.2875 H   0  0
   26.7131  -15.6426   -0.2450 H   0  0
   24.8598  -20.0512   -0.4144 H   0  0
   26.8405  -16.3593    0.4948 H   0  0
   28.9527  -17.4863    0.6651 H   0  0
   25.7347  -23.1937   -0.5881 H   0  0
   25.3156  -21.6474   -1.3629 H   0  0
   25.0608  -21.8649    0.3851 H   0  0
   30.8018  -21.6955    0.3681 H   0  0
   29.4502  -21.7610   -0.7877 H   0  0
   29.1512  -22.0234    0.9470 H   0  0
 23 24  1  0
 25 24  1  0
 10 25  1  0
 25 26  1  0
 26  5  1  0
 26  7  1  0
 26 27  1  0
  2  3  1  0
  6 28  1  0
  2  4  1  0
  6 29  1  0
  4  5  1  0
 19 30  1  0
  2  6  1  0
 19 31  1  0
  7  6  1  0
  1 32  1  0
  7  8  1  0
 32 33  1  0
  8  9  1  0
 33 34  1  0
 10  9  1  0
 34 35  1  0
 10 11  1  0
 35 36  1  0
 10 12  1  0
 35 37  2  0
 12 13  1  0
 36 38  1  0
 12 14  1  0
 38 39  1  0
 14 15  1  0
 38 40  1  0
 16 15  1  0
 16  1  1  0
 39 41  1  0
 39 42  2  0
 16 17  1  0
 40 43  1  0
 17 18  1  0
 43 44  2  0
 18 19  1  0
 44 45  1  0
 45 48  2  0
 19 20  1  0
 47 46  2  0
 46 43  1  0
 47 48  1  0
 21 20  1  0
 16 21  1  0
 45 49  1  0
 21 22  1  0
 49 50  1  0
 12 22  1  0
 48 51  1  0
 22 23  2  0
 51 52  1  0
  1 53  1  0
  1 54  1  0
  2 55  1  0
  3 56  1  0
  4 57  1  0
  4 58  1  0
  5 59  1  0
  5 60  1  0
  7 61  1  0
  8 62  1  0
  8 63  1  0
  9 64  1  0
  9 65  1  0
 11 66  1  0
 11 67  1  0
 11 68  1  0
 13 69  1  0
 13 70  1  0
 13 71  1  0
 14 72  1  0
 14 73  1  0
 15 74  1  0
 15 75  1  0
 17 76  1  0
 17 77  1  0
 18 78  1  0
 18 79  1  0
 20 80  1  0
 20 81  1  0
 21 82  1  0
 23 83  1  0
 24 84  1  0
 24 85  1  0
 25 86  1  0
 27 87  1  0
 27 88  1  0
 27 89  1  0
 28 90  1  0
 28 91  1  0
 28 92  1  0
 29 93  1  0
 29 94  1  0
 29 95  1  0
 30 96  1  0
 30 97  1  0
 30 98  1  0
 31 99  1  0
 31100  1  0
 31101  1  0
 32102  1  0
 32103  1  0
 33104  1  0
 33105  1  0
 34106  1  0
 34107  1  0
 36108  1  0
 38109  1  0
 40110  1  0
 40111  1  0
 41112  1  0
 44113  1  0
 46114  1  0
 47115  1  0
 50116  1  0
 50117  1  0
 50118  1  0
 52119  1  0
 52120  1  0
 52121  1  0
M  END
> <Name>
Molecule

> <Clean Energy>
131.777

> <From>
www.bindingDB.org

> <BindingDB Reactant_set_id>
50428418

> <Ligand InChI>
InChI=1S/C45H69NO6/c1-40(2)22-24-45(19-11-10-12-38(48)46-32(39(49)50)26-29-13-15-33(51-8)34(27-29)52-9)25-23-43(6)30(31(45)28-40)14-16-36-42(5)20-18-37(47)41(3,4)35(42)17-21-44(36,43)7/h13-15,27,31-32
,35-37,47H,10-12,16-26,28H2,1-9H3,(H,46,48)(H,49,50)/t31-,32?,35-,36+,37-,42-,43+,44+,45+/m0/s1

> <Ligand InChI Key>
BJNQZVRHCYYFIZ-OJFBTTEYSA-N

> <BindingDB MonomerID>
50246670

> <BindingDB Ligand Name>
3-(3,4-dimethoxyphenyl)-2-(5-((4aR,6aS,6bR,8aR,10S,12aR,12bR,14bR)-10-hydroxy-2,2,6a,6b,9,9,12a-heptamethyl-1,2,3,4,4a,5,6,6a,6b,7,8,8a,9,10,11,12,12a,12b,13,14b-icosahydropicen-4a-yl)pentanamido)prop
anoic acid::CHEMBL443091

> <Target Name>
Tyrosine-protein phosphatase non-receptor type 1

> <Target Source Organism According to Curator or DataSource>
Homo sapiens

> <IC50 (nM)>
820

> <Curation/DataSource>
ChEMBL

> <Article DOI>
10.1016/j.bmc.2008.07.080

> <BindingDB Entry DOI>
10.7270/Q2HX1CH7

> <PMID>
18707891

> <Authors>
Zhang, YN; Zhang, W; Hong, D; Shi, L; Shen, Q; Li, JY; Li, J; Hu, LH

> <Institution>
Chinese Academy of Sciences

> <Link to Ligand in BindingDB>
http://www.bindingdb.org/bind/chemsearch/marvin/MolStructure.jsp?monomerid=50246670

> <Link to Ligand-Target Pair in BindingDB>
http://www.bindingdb.org/jsp/dbsearch/PrimarySearch_ki.jsp?energyterm=kJ/mole&tag=pol&polymerid=2622&target=Tyrosine-protein+phosphatase+non-receptor+type+1&column=ki&startPg=0&Increment=50&submit=Sea
rch
http://www.bindingdb.org/jsp/dbsearch/PrimarySearch_ki.jsp?energyterm=kJ/mole&tag=r21&monomerid=50246670&enzyme=Tyrosine-protein+phosphatase+non-receptor+type+1&column=ki&startPg=0&Increment=50&submit
=Search

> <PubChem CID of Ligand>
44563389

> <PubChem SID of Ligand>
104102052

> <ChEMBL ID of Ligand>
CHEMBL443091

> <ZINC ID of Ligand>
ZINC49832966

> <Number of Protein Chains in Target (bigger than 1 implies a multichain complex)>
1

> <BindingDB Target Chain Sequence>
MEMEKEFEQIDKSGSWAAIYQDIRHEASDFPCRVAKLPKNKNRNRYRDVSPFDHSRIKLHQEDNDYINASLIKMEEAQRSYILTQGPLPNTCGHFWEMVWEQKSRGVVMLNRVMEKGSLKCAQYWPQKEEKEMIFEDTNLKLTLISEDIKSYYTVRQLELENLTTQETREILHFHYTTWPDFGVPESPASFLNFLFKVRE
SGSLSPEHGPVVVHCSAGIGRSGTFCLADTCLLLMDKRKDPSSVDIKKVLLEMRKFRMGLIQTADQLRFSYLAVIEGAKFIMGDSSVQDQWKELSHEDLEPPPEHIPPPPRPPKRILEPHNGKCREFFPNHQWVKEETQEDKDCPIKEEKGSPLNAAPYGIESMSQDTEVRSRVVGGSLRGAQAASPAKGEPSLPEKDED
HALSYWKPFLVNMCVATVLTAGAYLCYRFLFNSNT

> <PDB ID(s) of Target Chain>
1BZJ,1G7G,1GFY,1JF7,1KAK,1KAV,1LQF,1NL9,1NNY,1NO6,1NZ7,1OEM,1OEO,1OES,1OET,1OEU,1OEV,1ONY,1ONZ,1PH0,1PXH,1PYN,1Q1M,1Q6J,1Q6M,1Q6N,1Q6P,1Q6S,1Q6T,1QXK,1SUG,1T48,1T49,1T4J,1WAX,1XBO,2AZR,2B07,2BGD,2BGE,
2CM2,2CM3,2CM7,2CM8,2CMA,2CMB,2CMC,2CNE,2CNF,2CNG,2CNH,2CNI,2F6T,2F6V,2F6W,2F6Y,2F6Z,2F70,2F71,2FJN,2H4G,2H4K,2HB1,2HNP,2HNQ,2QBP,2QBQ,2QBR,2QBS,2VEU,2VEV,2VEW,2VEX,2VEY,2ZMM,2ZN7,3A5J,3CWE,3D9C,3EAX,
3EB1,3EU0,3I7Z,3I80,3SME,4BJO,4I8N,4QBW,4Y14,5K9V,5K9W,5KA0,5KA1,5T19,6B90,6NTP,6W30,7KEY,7KLX,7LFO,7MN9,7MNA,8DU7,8G65,8G67,8G68,8G69,8G6A,8SKL

> <UniProt (SwissProt) Recommended Name of Target Chain>
Tyrosine-protein phosphatase non-receptor type 1

> <UniProt (SwissProt) Entry Name of Target Chain>
PTN1_HUMAN

> <UniProt (SwissProt) Primary ID of Target Chain>
P18031

> <UniProt (SwissProt) Secondary ID(s) of Target Chain>
Q5TGD8 Q9BQV9 Q9NQQ4

$$$$
Molecule
  SciTegic10242319433D

 29 30  0  0  0  0            999 V2000
   27.1790  -27.0927   -0.7761 I   0  5
   26.1066  -21.5728    0.0242 C   0  0
   26.1590  -22.9027    0.1088 C   0  0
   27.4570  -23.5890    0.1549 C   0  0
   27.3444  -20.7927   -0.0229 C   0  0
   28.5155  -21.4227    0.0191 C   0  0
   28.5835  -22.8811    0.1118 C   0  0
   29.8642  -23.5313    0.1548 N   0  3
   30.9475  -22.8448    0.1116 C   0  0
   29.6980  -20.7470   -0.0216 N   0  0
   30.8642  -21.3928    0.0198 C   0  0
   31.8656  -20.5263   -0.0329 C   0  0
   31.2227  -19.1923   -0.1165 C   0  0
   29.8960  -19.3768   -0.1064 C   0  0
   32.2961  -23.5170    0.1553 C   0  0
   24.5776  -20.7695   -0.0299 Cl  0  0
   29.9273  -24.9661    0.2477 C   0  0
   25.2363  -23.4819    0.1438 H   0  0
   27.4977  -24.6760    0.2244 H   0  0
   27.3070  -19.7055   -0.0919 H   0  0
   32.9329  -20.7468   -0.0181 H   0  0
   31.7376  -18.2334   -0.1756 H   0  0
   29.1271  -18.6057   -0.1549 H   0  0
   33.0807  -22.7620    0.1076 H   0  0
   32.3926  -24.1947   -0.6930 H   0  0
   32.3915  -24.0812    1.0831 H   0  0
   30.9696  -25.2838    0.2690 H   0  0
   29.4306  -25.4087   -0.6157 H   0  0
   29.4294  -25.2938    1.1603 H   0  0
  2  3  2  0
  3  4  1  0
  4  7  2  0
  6  5  2  0
  5  2  1  0
  6  7  1  0
  6 10  1  0
  7  8  1  0
  8  9  2  0
  9 11  1  0
 10 11  1  0
 11 12  2  0
 12 13  1  0
 13 14  2  0
 14 10  1  0
  9 15  1  0
  2 16  1  0
  8 17  1  0
  3 18  1  0
  4 19  1  0
  5 20  1  0
 12 21  1  0
 13 22  1  0
 14 23  1  0
 15 24  1  0
 15 25  1  0
 15 26  1  0
 17 27  1  0
 17 28  1  0
 17 29  1  0
M  CHG  2   1  -1   8   1
M  END
> <Name>
Molecule

> <Clean Energy>
16.4522

> <From>
www.bindingDB.org

> <BindingDB Reactant_set_id>
51406846

> <Ligand InChI>
InChI=1S/C13H12ClN2.HI/c1-9-11-4-3-7-16(11)13-8-10(14)5-6-12(13)15(9)2;/h3-8H,1-2H3;1H/q+1;/p-1

> <Ligand InChI Key>
MRDFMDJCWHXKAH-UHFFFAOYSA-M

> <BindingDB MonomerID>
50568463

> <BindingDB Ligand Name>
CHEMBL4846983

> <Target Name>
Tyrosine-protein phosphatase non-receptor type 1

> <Target Source Organism According to Curator or DataSource>
Homo sapiens

> <IC50 (nM)>
830

> <Curation/DataSource>
ChEMBL

> <Article DOI>
10.1016/j.bmc.2021.116295

> <BindingDB Entry DOI>
10.7270/Q2X92G2J

> <PMID>
34246920

> <Authors>
Sánchez-Alonso, P; Griera, M; García-Marín, J; Rodríguez-Puyol, M; Alajarín, R; Vaquero, JJ; Rodríguez-Puyol, D

> <Institution>
Universidad de Alcal&#163;

> <Link to Ligand in BindingDB>
http://www.bindingdb.org/bind/chemsearch/marvin/MolStructure.jsp?monomerid=50568463

> <Link to Ligand-Target Pair in BindingDB>
http://www.bindingdb.org/jsp/dbsearch/PrimarySearch_ki.jsp?energyterm=kJ/mole&tag=pol&polymerid=2622&target=Tyrosine-protein+phosphatase+non-receptor+type+1&column=ki&startPg=0&Increment=50&submit=Sea
rch
http://www.bindingdb.org/jsp/dbsearch/PrimarySearch_ki.jsp?energyterm=kJ/mole&tag=r21&monomerid=50568463&enzyme=Tyrosine-protein+phosphatase+non-receptor+type+1&column=ki&startPg=0&Increment=50&submit
=Search

> <PubChem CID of Ligand>
164609356

> <PubChem SID of Ligand>
471058608

> <Number of Protein Chains in Target (bigger than 1 implies a multichain complex)>
1

> <BindingDB Target Chain Sequence>
MEMEKEFEQIDKSGSWAAIYQDIRHEASDFPCRVAKLPKNKNRNRYRDVSPFDHSRIKLHQEDNDYINASLIKMEEAQRSYILTQGPLPNTCGHFWEMVWEQKSRGVVMLNRVMEKGSLKCAQYWPQKEEKEMIFEDTNLKLTLISEDIKSYYTVRQLELENLTTQETREILHFHYTTWPDFGVPESPASFLNFLFKVRE
SGSLSPEHGPVVVHCSAGIGRSGTFCLADTCLLLMDKRKDPSSVDIKKVLLEMRKFRMGLIQTADQLRFSYLAVIEGAKFIMGDSSVQDQWKELSHEDLEPPPEHIPPPPRPPKRILEPHNGKCREFFPNHQWVKEETQEDKDCPIKEEKGSPLNAAPYGIESMSQDTEVRSRVVGGSLRGAQAASPAKGEPSLPEKDED
HALSYWKPFLVNMCVATVLTAGAYLCYRFLFNSNT

> <PDB ID(s) of Target Chain>
1BZJ,1G7G,1GFY,1JF7,1KAK,1KAV,1LQF,1NL9,1NNY,1NO6,1NZ7,1OEM,1OEO,1OES,1OET,1OEU,1OEV,1ONY,1ONZ,1PH0,1PXH,1PYN,1Q1M,1Q6J,1Q6M,1Q6N,1Q6P,1Q6S,1Q6T,1QXK,1SUG,1T48,1T49,1T4J,1WAX,1XBO,2AZR,2B07,2BGD,2BGE,
2CM2,2CM3,2CM7,2CM8,2CMA,2CMB,2CMC,2CNE,2CNF,2CNG,2CNH,2CNI,2F6T,2F6V,2F6W,2F6Y,2F6Z,2F70,2F71,2FJN,2H4G,2H4K,2HB1,2HNP,2HNQ,2QBP,2QBQ,2QBR,2QBS,2VEU,2VEV,2VEW,2VEX,2VEY,2ZMM,2ZN7,3A5J,3CWE,3D9C,3EAX,
3EB1,3EU0,3I7Z,3I80,3SME,4BJO,4I8N,4QBW,4Y14,5K9V,5K9W,5KA0,5KA1,5T19,6B90,6NTP,6W30,7KEY,7KLX,7LFO,7MN9,7MNA,8DU7,8G65,8G67,8G68,8G69,8G6A,8SKL

> <UniProt (SwissProt) Recommended Name of Target Chain>
Tyrosine-protein phosphatase non-receptor type 1

> <UniProt (SwissProt) Entry Name of Target Chain>
PTN1_HUMAN

> <UniProt (SwissProt) Primary ID of Target Chain>
P18031

> <UniProt (SwissProt) Secondary ID(s) of Target Chain>
Q5TGD8 Q9BQV9 Q9NQQ4

$$$$
Molecule
  SciTegic10242319433D

 59 61  0  0  0  0            999 V2000
    4.6634   -6.8136   -0.0220 C   0  0
    4.5640   -8.2096   -0.0417 C   0  0
    5.7255   -8.9700   -0.0701 C   0  0
    5.9182   -6.2098   -0.0332 C   0  0
    3.5481   -5.9818    0.0075 O   0  0
    5.6255  -10.3564   -0.0801 O   0  0
    3.2384   -8.9986   -0.0290 C   0  0
    1.9768   -8.1812   -0.0117 C   0  0
    0.7821   -8.7731    0.0007 C   0  0
   -0.4620   -7.9345    0.0157 C   0  0
    0.6709  -10.2748   -0.0013 C   0  0
    7.0780   -6.9774   -0.0597 C   0  0
    6.9777   -8.3578   -0.0755 C   0  0
    8.1794   -9.1639   -0.0831 C   0  0
    9.4825   -8.4735    0.2858 C   0  0  2  0  0  0
    9.5134   -7.0735   -0.3579 C   0  0
    8.3130   -6.3548   -0.0975 O   0  0
    8.0800  -10.3790   -0.2243 O   0  0
   10.8430   -9.2302    0.0981 C   0  0
   11.0037  -10.6207    0.1211 C   0  0
   12.2558  -11.2061   -0.0353 C   0  0
   13.3825  -10.3979   -0.2097 C   0  0
   13.2307   -9.0176   -0.2270 C   0  0
   11.9758   -8.4422   -0.0751 C   0  0
    9.9519  -11.4850    0.3098 O   0  0
   14.6653  -10.9165   -0.3671 O   0  0
   12.2791  -12.7453    0.0037 C   0  0
   13.6304  -13.3990   -0.0318 C   0  0
   13.7360  -14.7282   -0.0254 C   0  0
   15.0927  -15.3668   -0.0541 C   0  0
   12.5035  -15.5935    0.0129 C   0  0
    5.9925   -5.1224   -0.0211 H   0  0
    2.9583   -6.1560   -0.8437 H   0  0
    5.1230  -10.6779    0.7840 H   0  0
    3.2161   -9.6246   -0.9211 H   0  0
    3.2367   -9.6305    0.8591 H   0  0
    2.0394   -7.0930   -0.0093 H   0  0
   -1.3379   -8.5832    0.0245 H   0  0
   -0.4864   -7.3040   -0.8731 H   0  0
   -0.4667   -7.3064    0.9065 H   0  0
   -0.3805  -10.5618    0.0101 H   0  0
    1.1666  -10.6775    0.8820 H   0  0
    1.1461  -10.6735   -0.8976 H   0  0
    9.4092   -8.2887    1.3575 H   0  0
   10.3562   -6.5149    0.0491 H   0  0
    9.6350   -7.1816   -1.4357 H   0  0
   14.1045   -8.3798   -0.3609 H   0  0
   11.8773   -7.3568   -0.0920 H   0  0
    9.5021  -11.2921    1.2389 H   0  0
   14.9212  -11.4819    0.4799 H   0  0
   11.7837  -13.0601    0.9221 H   0  0
   11.7148  -13.1062   -0.8562 H   0  0
   14.5296  -12.7838   -0.0629 H   0  0
   14.9847  -16.4513   -0.0442 H   0  0
   15.6621  -15.0509    0.8201 H   0  0
   15.6188  -15.0629   -0.9591 H   0  0
   12.7959  -16.6435    0.0125 H   0  0
   11.8874  -15.3882   -0.8626 H   0  0
   11.9340  -15.3759    0.9165 H   0  0
  1  2  4  0
  2  3  4  0
  3 13  4  0
 12  4  4  0
  4  1  4  0
  1  5  1  0
  3  6  1  0
  2  7  1  0
  7  8  1  0
  8  9  2  0
  9 10  1  0
  9 11  1  0
 12 13  4  0
 12 17  1  0
 13 14  1  0
 15 14  1  0
 15 16  1  0
 16 17  1  0
 14 18  2  0
 15 19  1  0
 19 20  4  0
 20 21  4  0
 21 22  4  0
 22 23  4  0
 23 24  4  0
 24 19  4  0
 20 25  1  0
 22 26  1  0
 21 27  1  0
 27 28  1  0
 28 29  2  0
 29 30  1  0
 29 31  1  0
  4 32  1  0
  5 33  1  0
  6 34  1  0
  7 35  1  0
  7 36  1  0
  8 37  1  0
 10 38  1  0
 10 39  1  0
 10 40  1  0
 11 41  1  0
 11 42  1  0
 11 43  1  0
 15 44  1  0
 16 45  1  0
 16 46  1  0
 23 47  1  0
 24 48  1  0
 25 49  1  0
 26 50  1  0
 27 51  1  0
 27 52  1  0
 28 53  1  0
 30 54  1  0
 30 55  1  0
 30 56  1  0
 31 57  1  0
 31 58  1  0
 31 59  1  0
M  END
> <Name>
Molecule

> <Clean Energy>
35.2276

> <From>
www.bindingDB.org

> <BindingDB Reactant_set_id>
50794086

> <Ligand InChI>
InChI=1S/C25H28O6/c1-13(2)5-7-16-19(26)10-9-15(23(16)28)18-12-31-21-11-20(27)17(8-6-14(3)4)24(29)22(21)25(18)30/h5-6,9-11,18,26-29H,7-8,12H2,1-4H3/t18-/m1/s1

> <Ligand InChI Key>
RIWDYFGEQJAMKI-GOSISDBHSA-N

> <BindingDB MonomerID>
50253206

> <BindingDB Ligand Name>
CHEMBL4064802

> <Target Name>
Tyrosine-protein phosphatase non-receptor type 1

> <Target Source Organism According to Curator or DataSource>
Homo sapiens

> <IC50 (nM)>
840

> <Curation/DataSource>
ChEMBL

> <Article DOI>
10.1016/j.bmc.2017.05.009

> <BindingDB Entry DOI>
10.7270/Q2C82CRZ

> <PMID>
28522265

> <Authors>
Lin, Y; Kuang, Y; Li, K; Wang, S; Song, W; Qiao, X; Sabir, G; Ye, M

> <Institution>
Peking University

> <Link to Ligand in BindingDB>
http://www.bindingdb.org/bind/chemsearch/marvin/MolStructure.jsp?monomerid=50253206

> <Link to Ligand-Target Pair in BindingDB>
http://www.bindingdb.org/jsp/dbsearch/PrimarySearch_ki.jsp?energyterm=kJ/mole&tag=pol&polymerid=2622&target=Tyrosine-protein+phosphatase+non-receptor+type+1&column=ki&startPg=0&Increment=50&submit=Sea
rch
http://www.bindingdb.org/jsp/dbsearch/PrimarySearch_ki.jsp?energyterm=kJ/mole&tag=r21&monomerid=50253206&enzyme=Tyrosine-protein+phosphatase+non-receptor+type+1&column=ki&startPg=0&Increment=50&submit
=Search

> <PubChem CID of Ligand>
137637878

> <PubChem SID of Ligand>
401957770

> <Number of Protein Chains in Target (bigger than 1 implies a multichain complex)>
1

> <BindingDB Target Chain Sequence>
MEMEKEFEQIDKSGSWAAIYQDIRHEASDFPCRVAKLPKNKNRNRYRDVSPFDHSRIKLHQEDNDYINASLIKMEEAQRSYILTQGPLPNTCGHFWEMVWEQKSRGVVMLNRVMEKGSLKCAQYWPQKEEKEMIFEDTNLKLTLISEDIKSYYTVRQLELENLTTQETREILHFHYTTWPDFGVPESPASFLNFLFKVRE
SGSLSPEHGPVVVHCSAGIGRSGTFCLADTCLLLMDKRKDPSSVDIKKVLLEMRKFRMGLIQTADQLRFSYLAVIEGAKFIMGDSSVQDQWKELSHEDLEPPPEHIPPPPRPPKRILEPHNGKCREFFPNHQWVKEETQEDKDCPIKEEKGSPLNAAPYGIESMSQDTEVRSRVVGGSLRGAQAASPAKGEPSLPEKDED
HALSYWKPFLVNMCVATVLTAGAYLCYRFLFNSNT

> <PDB ID(s) of Target Chain>
1BZJ,1G7G,1GFY,1JF7,1KAK,1KAV,1LQF,1NL9,1NNY,1NO6,1NZ7,1OEM,1OEO,1OES,1OET,1OEU,1OEV,1ONY,1ONZ,1PH0,1PXH,1PYN,1Q1M,1Q6J,1Q6M,1Q6N,1Q6P,1Q6S,1Q6T,1QXK,1SUG,1T48,1T49,1T4J,1WAX,1XBO,2AZR,2B07,2BGD,2BGE,
2CM2,2CM3,2CM7,2CM8,2CMA,2CMB,2CMC,2CNE,2CNF,2CNG,2CNH,2CNI,2F6T,2F6V,2F6W,2F6Y,2F6Z,2F70,2F71,2FJN,2H4G,2H4K,2HB1,2HNP,2HNQ,2QBP,2QBQ,2QBR,2QBS,2VEU,2VEV,2VEW,2VEX,2VEY,2ZMM,2ZN7,3A5J,3CWE,3D9C,3EAX,
3EB1,3EU0,3I7Z,3I80,3SME,4BJO,4I8N,4QBW,4Y14,5K9V,5K9W,5KA0,5KA1,5T19,6B90,6NTP,6W30,7KEY,7KLX,7LFO,7MN9,7MNA,8DU7,8G65,8G67,8G68,8G69,8G6A,8SKL

> <UniProt (SwissProt) Recommended Name of Target Chain>
Tyrosine-protein phosphatase non-receptor type 1

> <UniProt (SwissProt) Entry Name of Target Chain>
PTN1_HUMAN

> <UniProt (SwissProt) Primary ID of Target Chain>
P18031

> <UniProt (SwissProt) Secondary ID(s) of Target Chain>
Q5TGD8 Q9BQV9 Q9NQQ4

$$$$
Molecule
  SciTegic10242319433D

 68 72  0  0  0  0            999 V2000
   14.7792   -2.7703   -0.0003 N   0  0
   13.9023   -3.8346    0.0014 C   0  0
   13.9763   -1.6369    0.0000 C   0  0
   12.5890   -3.3264    0.0035 N   0  0
   -0.2631   -4.3029   -0.0292 N   0  0
   -1.0754   -5.3014   -0.0290 C   0  0
   12.6167   -2.0060    0.0022 O   0  0
    1.0654   -4.8433   -0.0376 C   0  0
   -0.3855   -6.4887   -0.0385 O   0  0
    0.9397   -6.1727   -0.0427 C   0  0
   -6.9280   -5.0469    0.0790 C   0  0
    8.8452   -4.6047   -0.0003 C   0  0
    9.9362   -3.7514    0.0028 C   0  0
   16.2702   -2.7456   -0.0018 C   0  0
    7.4027   -3.9070   -0.0048 C   0  0
   11.4306   -4.2240    0.0075 C   0  0
   -2.5814   -5.2172   -0.0122 C   0  0
   -5.4101   -5.1051    0.0417 C   0  0
   14.1847   -5.0358    0.0021 O   0  0
   17.0422   -4.0782   -0.0012 C   0  0
   14.4029   -0.4762   -0.0010 O   0  0
    2.4010   -3.9762   -0.0362 C   0  0
    6.2354   -4.5938   -0.0143 C   0  0
    8.9842   -6.2349   -0.0001 C   0  0
   16.4738   -5.1722   -0.0011 O   0  0
   -3.2077   -4.0382    0.0009 C   0  0
   -3.3877   -6.4564   -0.0009 C   0  0
   -4.7228   -6.4012    0.0249 C   0  0
   -4.6911   -3.9808    0.0287 C   0  0
   -7.3883   -4.8450   -1.2066 F   0  0
   -7.4533   -6.2357    0.5486 F   0  0
   -7.3451   -3.9680    0.8334 F   0  0
    3.6714   -4.7472   -0.0305 O   0  0
    4.8922   -3.9317   -0.0194 C   0  0
   18.4374   -4.0522   -0.0010 O   0  0
    2.0431   -7.1942   -0.0501 C   0  0
    7.3070   -2.4377    0.0010 C   0  0
    6.1135   -1.8277   -0.0030 C   0  0
    7.8980   -7.0163    0.0012 C   0  0
   10.2867   -6.9746   -0.0010 C   0  0
    4.8469   -2.6023   -0.0138 C   0  0
   10.3632   -8.3005   -0.0007 C   0  0
    7.9790   -8.4786    0.0016 C   0  0
    9.1563   -9.0907    0.0007 C   0  0
    9.7425   -2.6788    0.0019 H   0  0
   16.5790   -2.1988   -0.8927 H   0  0
   16.5807   -2.1971    0.8876 H   0  0
   11.5399   -4.8380    0.9015 H   0  0
   11.5421   -4.8487   -0.8788 H   0  0
    2.3939   -3.3497   -0.9282 H   0  0
    2.3889   -3.3446    0.8521 H   0  0
    6.2756   -5.6830   -0.0186 H   0  0
   -2.6283   -3.1150   -0.0088 H   0  0
   -2.8880   -7.4250   -0.0138 H   0  0
   -5.3038   -7.3234    0.0335 H   0  0
   -5.1959   -3.0147    0.0386 H   0  0
   18.7788   -3.5511   -0.8583 H   0  0
    3.0080   -6.6874   -0.0523 H   0  0
    1.9576   -7.8156   -0.9415 H   0  0
    1.9645   -7.8210    0.8382 H   0  0
    8.2177   -1.8388    0.0085 H   0  0
    6.0719   -0.7385    0.0018 H   0  0
    6.9146   -6.5462    0.0020 H   0  0
   11.2125   -6.3993   -0.0021 H   0  0
    3.8872   -2.0855   -0.0171 H   0  0
   11.3366   -8.7909   -0.0014 H   0  0
    7.0633   -9.0698    0.0026 H   0  0
    9.2110  -10.1793    0.0010 H   0  0
  2  1  1  0
  3  1  1  0
  4  2  1  0
  5  8  1  0
  6  5  2  0
  7  3  1  0
  8 22  1  0
  9 10  1  0
 10  8  2  0
 11 18  1  0
 12 13  2  0
 13 16  1  0
 14  1  1  0
 15 12  1  0
 16  4  1  0
 17  6  1  0
 18 28  1  0
 19  2  2  0
 20 14  1  0
 21  3  2  0
 22 33  1  0
 23 15  2  0
 24 12  1  0
 25 20  2  0
 26 17  2  0
 27 17  1  0
 28 27  2  0
 29 26  1  0
 30 11  1  0
 31 11  1  0
 32 11  1  0
 33 34  1  0
 34 23  1  0
 35 20  1  0
 36 10  1  0
 37 15  1  0
 38 37  2  0
 39 24  2  0
 40 24  1  0
 41 38  1  0
 42 40  2  0
 43 39  1  0
 44 42  1  0
  4  7  1  0
 44 43  2  0
 41 34  2  0
  9  6  1  0
 18 29  2  0
 13 45  1  0
 14 46  1  0
 14 47  1  0
 16 48  1  0
 16 49  1  0
 22 50  1  0
 22 51  1  0
 23 52  1  0
 26 53  1  0
 27 54  1  0
 28 55  1  0
 29 56  1  0
 35 57  1  0
 36 58  1  0
 36 59  1  0
 36 60  1  0
 37 61  1  0
 38 62  1  0
 39 63  1  0
 40 64  1  0
 41 65  1  0
 42 66  1  0
 43 67  1  0
 44 68  1  0
M  END
> <Name>
Molecule

> <Clean Energy>
79.3163

> <From>
www.bindingDB.org

> <BindingDB Reactant_set_id>
50152964

> <Ligand InChI>
InChI=1S/C31H24F3N3O7/c1-19-26(35-28(43-19)21-10-12-23(13-11-21)31(32,33)34)18-42-24-9-5-8-22(16-24)25(20-6-3-2-4-7-20)14-15-37-29(40)36(17-27(38)39)30(41)44-37/h2-14,16H,15,17-18H2,1H3,(H,38,39)/b25-
14+

> <Ligand InChI Key>
VHUWUHDNOLTEMC-AFUMVMLFSA-N

> <BindingDB MonomerID>
50085954

> <BindingDB Ligand Name>
CHEMBL203751::[2-(3-{3-[5-Methyl-2-(4-trifluoromethyl-phenyl)-oxazol-4-ylmethoxy]-phenyl}-3-phenyl-allyl)-3,5-dioxo-[1,2,4]oxadiazolidin-4-yl]-acetic acid

> <Target Name>
Tyrosine-protein phosphatase non-receptor type 1

> <Target Source Organism According to Curator or DataSource>
Homo sapiens

> <IC50 (nM)>
850

> <Curation/DataSource>
ChEMBL

> <Article DOI>
10.1021/jm990476x

> <BindingDB Entry DOI>
10.7270/Q2H70F1H

> <PMID>
10715163

> <Authors>
Malamas, MS; Sredy, J; Gunawan, I; Mihan, B; Sawicki, DR; Seestaller, L; Sullivan, D; Flam, BR

> <Institution>
Wyeth-Ayerst Research

> <Link to Ligand in BindingDB>
http://www.bindingdb.org/bind/chemsearch/marvin/MolStructure.jsp?monomerid=50085954

> <Link to Ligand-Target Pair in BindingDB>
http://www.bindingdb.org/jsp/dbsearch/PrimarySearch_ki.jsp?energyterm=kJ/mole&tag=pol&polymerid=2622&target=Tyrosine-protein+phosphatase+non-receptor+type+1&column=ki&startPg=0&Increment=50&submit=Sea
rch
http://www.bindingdb.org/jsp/dbsearch/PrimarySearch_ki.jsp?energyterm=kJ/mole&tag=r21&monomerid=50085954&enzyme=Tyrosine-protein+phosphatase+non-receptor+type+1&column=ki&startPg=0&Increment=50&submit
=Search

> <PubChem CID of Ligand>
11801834

> <PubChem SID of Ligand>
103985364

> <ChEMBL ID of Ligand>
CHEMBL203751

> <ZINC ID of Ligand>
ZINC25966546

> <Number of Protein Chains in Target (bigger than 1 implies a multichain complex)>
1

> <BindingDB Target Chain Sequence>
MEMEKEFEQIDKSGSWAAIYQDIRHEASDFPCRVAKLPKNKNRNRYRDVSPFDHSRIKLHQEDNDYINASLIKMEEAQRSYILTQGPLPNTCGHFWEMVWEQKSRGVVMLNRVMEKGSLKCAQYWPQKEEKEMIFEDTNLKLTLISEDIKSYYTVRQLELENLTTQETREILHFHYTTWPDFGVPESPASFLNFLFKVRE
SGSLSPEHGPVVVHCSAGIGRSGTFCLADTCLLLMDKRKDPSSVDIKKVLLEMRKFRMGLIQTADQLRFSYLAVIEGAKFIMGDSSVQDQWKELSHEDLEPPPEHIPPPPRPPKRILEPHNGKCREFFPNHQWVKEETQEDKDCPIKEEKGSPLNAAPYGIESMSQDTEVRSRVVGGSLRGAQAASPAKGEPSLPEKDED
HALSYWKPFLVNMCVATVLTAGAYLCYRFLFNSNT

> <PDB ID(s) of Target Chain>
1BZJ,1G7G,1GFY,1JF7,1KAK,1KAV,1LQF,1NL9,1NNY,1NO6,1NZ7,1OEM,1OEO,1OES,1OET,1OEU,1OEV,1ONY,1ONZ,1PH0,1PXH,1PYN,1Q1M,1Q6J,1Q6M,1Q6N,1Q6P,1Q6S,1Q6T,1QXK,1SUG,1T48,1T49,1T4J,1WAX,1XBO,2AZR,2B07,2BGD,2BGE,
2CM2,2CM3,2CM7,2CM8,2CMA,2CMB,2CMC,2CNE,2CNF,2CNG,2CNH,2CNI,2F6T,2F6V,2F6W,2F6Y,2F6Z,2F70,2F71,2FJN,2H4G,2H4K,2HB1,2HNP,2HNQ,2QBP,2QBQ,2QBR,2QBS,2VEU,2VEV,2VEW,2VEX,2VEY,2ZMM,2ZN7,3A5J,3CWE,3D9C,3EAX,
3EB1,3EU0,3I7Z,3I80,3SME,4BJO,4I8N,4QBW,4Y14,5K9V,5K9W,5KA0,5KA1,5T19,6B90,6NTP,6W30,7KEY,7KLX,7LFO,7MN9,7MNA,8DU7,8G65,8G67,8G68,8G69,8G6A,8SKL

> <UniProt (SwissProt) Recommended Name of Target Chain>
Tyrosine-protein phosphatase non-receptor type 1

> <UniProt (SwissProt) Entry Name of Target Chain>
PTN1_HUMAN

> <UniProt (SwissProt) Primary ID of Target Chain>
P18031

> <UniProt (SwissProt) Secondary ID(s) of Target Chain>
Q5TGD8 Q9BQV9 Q9NQQ4

$$$$
Molecule
  SciTegic10242319433D

 93 97  0  0  0  0            999 V2000
   43.2774   -9.9686   -1.0708 O   0  0
   42.8064  -10.9033    0.0277 S   0  0
   43.2521  -10.3285    1.3588 O   0  0
   17.9968  -10.4669    1.4323 O   0  0
   18.4383  -10.9713    0.0711 S   0  0
   17.9437   -9.9885   -0.9738 O   0  0
   29.9826   -9.5638    0.0128 C   0  0
   31.3843   -9.5815    0.0132 C   0  0
   32.1409   -8.4109    0.0081 C   0  0
   31.4449   -7.1785    0.0040 C   0  0
   30.0423   -7.1791    0.0037 C   0  0
   29.2801   -8.3614    0.0074 C   0  0
   27.6407   -8.3201    0.0041 C   0  0
   26.9404   -9.6751    0.0060 O   0  0
   25.4152   -9.7083    0.0040 C   0  0
   33.7555   -8.4804    0.0048 C   0  0
   34.3806   -9.8259    0.0439 O   0  0
   35.8752   -9.8200    0.0212 C   0  0
   24.6232   -8.5593   -0.0020 C   0  0
   23.2242   -8.6509    0.0006 C   0  0
   22.5663   -9.8829    0.0084 C   0  0
   23.3515  -11.0333    0.0130 C   0  0
   24.7496  -10.9396    0.0104 C   0  0
   36.5741  -11.0286    0.0634 C   0  0
   37.9718  -11.0693    0.0465 C   0  0
   38.7108   -9.8911   -0.0148 C   0  0
   38.0183   -8.6808   -0.0581 C   0  0
   36.6198   -8.6418   -0.0408 C   0  0
   32.2038   -5.8218    0.0003 C   0  0
   33.4358   -5.7858    0.0009 O   0  0
   21.0172   -9.9329    0.0229 C   0  0
   20.2735  -11.0611    0.0265 C   0  0
   17.6784  -12.4925   -0.1967 O   0  0
   16.2387  -12.3246   -0.1073 C   0  0
   15.5115  -13.6750   -0.3116 C   0  0
   40.2391   -9.8975   -0.0231 C   0  0
   40.9885  -11.0155    0.0100 C   0  0
   43.5625  -12.4308   -0.1654 O   0  0
   44.9966  -12.2587   -0.0790 C   0  0
   45.7144  -13.6244   -0.1632 C   0  0
   31.5258   -4.6541   -0.0011 N   0  0
   32.1521   -3.3261   -0.0019 C   0  0
   33.5313   -3.1228   -0.0017 C   0  0
   34.0692   -1.8360   -0.0017 C   0  0
   33.2482   -0.7109   -0.0017 C   0  0
   31.8765   -0.9270   -0.0019 C   0  0
   31.3311   -2.2058   -0.0020 C   0  0
   33.9100    0.6060   -0.0013 O   0  0
   33.3186    1.9866   -0.0007 C   0  0
   34.2812    2.9955   -0.0007 C   0  0
   33.9469    4.3447   -0.0001 C   0  0
   32.6143    4.7229    0.0005 C   0  0
   31.6374    3.7394    0.0006 C   0  0
   31.9693    2.3878    0.0000 C   0  0
   30.9516    1.5597    0.0002 F   0  0
   29.4340  -10.5057    0.0169 H   0  0
   31.8994  -10.5421    0.0176 H   0  0
   29.5204   -6.2222    0.0004 H   0  0
   27.3186   -7.7765    0.8923 H   0  0
   27.3220   -7.7808   -0.8879 H   0  0
   34.1022   -7.9850   -0.9022 H   0  0
   34.1082   -7.9305    0.8773 H   0  0
   25.0982   -7.5783   -0.0088 H   0  0
   22.6334   -7.7349   -0.0036 H   0  0
   22.8750  -12.0136    0.0187 H   0  0
   25.3387  -11.8566    0.0134 H   0  0
   36.0159  -11.9636    0.1106 H   0  0
   38.4860  -12.0298    0.0817 H   0  0
   38.5780   -7.7467   -0.1063 H   0  0
   36.1066   -7.6808   -0.0762 H   0  0
   20.4850   -8.9817    0.0308 H   0  0
   20.7664  -12.0330    0.0028 H   0  0
   15.9861  -11.9287    0.8764 H   0  0
   15.9128  -11.6240   -0.8761 H   0  0
   14.4346  -13.5227   -0.2401 H   0  0
   15.8301  -14.3797    0.4565 H   0  0
   15.7568  -14.0751   -1.2954 H   0  0
   40.7542   -8.9375   -0.0579 H   0  0
   40.5051  -11.9923    0.0263 H   0  0
   45.3316  -11.6268   -0.9015 H   0  0
   45.2435  -11.7823    0.8698 H   0  0
   46.7919  -13.4738   -0.0964 H   0  0
   45.4733  -14.1043   -1.1117 H   0  0
   45.3853  -14.2598    0.6591 H   0  0
   30.4568   -4.6997   -0.0018 H   0  0
   34.2002   -3.9835   -0.0016 H   0  0
   35.1517   -1.7085   -0.0016 H   0  0
   31.2065   -0.0672   -0.0021 H   0  0
   30.2483   -2.3304   -0.0022 H   0  0
   35.3347    2.7158   -0.0011 H   0  0
   34.7306    5.1023   -0.0002 H   0  0
   32.3382    5.7773    0.0009 H   0  0
   30.5870    4.0308    0.0011 H   0  0
  2  1  2  0
  3  2  2  0
  5  4  2  0
  6  5  2  0
  7  8  4  0
  8  9  4  0
  9 10  4  0
 10 11  4  0
 11 12  4  0
 12  7  4  0
 12 13  1  0
 13 14  1  0
 14 15  1  0
  9 16  1  0
 16 17  1  0
 17 18  1  0
 15 19  4  0
 19 20  4  0
 20 21  4  0
 21 22  4  0
 22 23  4  0
 23 15  4  0
 18 24  4  0
 24 25  4  0
 25 26  4  0
 26 27  4  0
 27 28  4  0
 28 18  4  0
 10 29  1  0
 29 30  2  0
 21 31  1  0
 31 32  2  0
 32  5  1  0
  5 33  1  0
 33 34  1  0
 34 35  1  0
 26 36  1  0
 36 37  2  0
 37  2  1  0
  2 38  1  0
 38 39  1  0
 39 40  1  0
 29 41  1  0
 41 42  1  0
 42 43  4  0
 43 44  4  0
 44 45  4  0
 45 46  4  0
 46 47  4  0
 47 42  4  0
 45 48  1  0
 48 49  1  0
 49 50  4  0
 50 51  4  0
 51 52  4  0
 52 53  4  0
 53 54  4  0
 54 49  4  0
 54 55  1  0
  7 56  1  0
  8 57  1  0
 11 58  1  0
 13 59  1  0
 13 60  1  0
 16 61  1  0
 16 62  1  0
 19 63  1  0
 20 64  1  0
 22 65  1  0
 23 66  1  0
 24 67  1  0
 25 68  1  0
 27 69  1  0
 28 70  1  0
 31 71  1  0
 32 72  1  0
 34 73  1  0
 34 74  1  0
 35 75  1  0
 35 76  1  0
 35 77  1  0
 36 78  1  0
 37 79  1  0
 39 80  1  0
 39 81  1  0
 40 82  1  0
 40 83  1  0
 40 84  1  0
 41 85  1  0
 43 86  1  0
 44 87  1  0
 46 88  1  0
 47 89  1  0
 50 90  1  0
 51 91  1  0
 52 92  1  0
 53 93  1  0
M  END
> <Name>
Molecule

> <Clean Energy>
40.6796

> <From>
www.bindingDB.org

> <BindingDB Reactant_set_id>
50808739

> <Ligand InChI>
InChI=1S/C41H38FNO10S2/c1-3-51-54(45,46)25-23-30-10-17-35(18-11-30)49-28-32-9-14-33(29-50-36-19-12-31(13-20-36)24-26-55(47,48)52-4-2)38(27-32)41(44)43-34-15-21-37(22-16-34)53-40-8-6-5-7-39(40)42/h5-27
H,3-4,28-29H2,1-2H3,(H,43,44)/b25-23+,26-24+

> <Ligand InChI Key>
LWMDRTBKBPHESX-OGGGYYITSA-N

> <BindingDB MonomerID>
50256839

> <BindingDB Ligand Name>
CHEMBL4070572

> <Target Name>
Tyrosine-protein phosphatase non-receptor type 1

> <Target Source Organism According to Curator or DataSource>
Homo sapiens

> <IC50 (nM)>
850

> <Curation/DataSource>
ChEMBL

> <Article DOI>
10.1016/j.bmcl.2017.03.060

> <BindingDB Entry DOI>
10.7270/Q2FR0024

> <PMID>
28372909

> <Authors>
Yang, F; Xie, F; Zhang, Y; Xia, Y; Liu, W; Jiang, F; Lam, C; Qiao, Y; Xie, D; Li, J; Fu, L

> <Institution>
Shanghai Jiao Tong University

> <Link to Ligand in BindingDB>
http://www.bindingdb.org/bind/chemsearch/marvin/MolStructure.jsp?monomerid=50256839

> <Link to Ligand-Target Pair in BindingDB>
http://www.bindingdb.org/jsp/dbsearch/PrimarySearch_ki.jsp?energyterm=kJ/mole&tag=pol&polymerid=2622&target=Tyrosine-protein+phosphatase+non-receptor+type+1&column=ki&startPg=0&Increment=50&submit=Sea
rch
http://www.bindingdb.org/jsp/dbsearch/PrimarySearch_ki.jsp?energyterm=kJ/mole&tag=r21&monomerid=50256839&enzyme=Tyrosine-protein+phosphatase+non-receptor+type+1&column=ki&startPg=0&Increment=50&submit
=Search

> <PubChem CID of Ligand>
137639232

> <PubChem SID of Ligand>
402360896

> <Number of Protein Chains in Target (bigger than 1 implies a multichain complex)>
1

> <BindingDB Target Chain Sequence>
MEMEKEFEQIDKSGSWAAIYQDIRHEASDFPCRVAKLPKNKNRNRYRDVSPFDHSRIKLHQEDNDYINASLIKMEEAQRSYILTQGPLPNTCGHFWEMVWEQKSRGVVMLNRVMEKGSLKCAQYWPQKEEKEMIFEDTNLKLTLISEDIKSYYTVRQLELENLTTQETREILHFHYTTWPDFGVPESPASFLNFLFKVRE
SGSLSPEHGPVVVHCSAGIGRSGTFCLADTCLLLMDKRKDPSSVDIKKVLLEMRKFRMGLIQTADQLRFSYLAVIEGAKFIMGDSSVQDQWKELSHEDLEPPPEHIPPPPRPPKRILEPHNGKCREFFPNHQWVKEETQEDKDCPIKEEKGSPLNAAPYGIESMSQDTEVRSRVVGGSLRGAQAASPAKGEPSLPEKDED
HALSYWKPFLVNMCVATVLTAGAYLCYRFLFNSNT

> <PDB ID(s) of Target Chain>
1BZJ,1G7G,1GFY,1JF7,1KAK,1KAV,1LQF,1NL9,1NNY,1NO6,1NZ7,1OEM,1OEO,1OES,1OET,1OEU,1OEV,1ONY,1ONZ,1PH0,1PXH,1PYN,1Q1M,1Q6J,1Q6M,1Q6N,1Q6P,1Q6S,1Q6T,1QXK,1SUG,1T48,1T49,1T4J,1WAX,1XBO,2AZR,2B07,2BGD,2BGE,
2CM2,2CM3,2CM7,2CM8,2CMA,2CMB,2CMC,2CNE,2CNF,2CNG,2CNH,2CNI,2F6T,2F6V,2F6W,2F6Y,2F6Z,2F70,2F71,2FJN,2H4G,2H4K,2HB1,2HNP,2HNQ,2QBP,2QBQ,2QBR,2QBS,2VEU,2VEV,2VEW,2VEX,2VEY,2ZMM,2ZN7,3A5J,3CWE,3D9C,3EAX,
3EB1,3EU0,3I7Z,3I80,3SME,4BJO,4I8N,4QBW,4Y14,5K9V,5K9W,5KA0,5KA1,5T19,6B90,6NTP,6W30,7KEY,7KLX,7LFO,7MN9,7MNA,8DU7,8G65,8G67,8G68,8G69,8G6A,8SKL

> <UniProt (SwissProt) Recommended Name of Target Chain>
Tyrosine-protein phosphatase non-receptor type 1

> <UniProt (SwissProt) Entry Name of Target Chain>
PTN1_HUMAN

> <UniProt (SwissProt) Primary ID of Target Chain>
P18031

> <UniProt (SwissProt) Secondary ID(s) of Target Chain>
Q5TGD8 Q9BQV9 Q9NQQ4

$$$$
Molecule
  SciTegic10242319433D

 88 94  0  0  0  0            999 V2000
   -2.8492   -9.4023    0.1712 C   0  0
   -2.7798   -6.3819    0.0608 C   0  0
   -1.5109   -7.1629    0.5318 C   0  0  1  0  0  0
   -1.5731   -8.5286   -0.2299 C   0  0  1  0  0  0
   -0.2719   -9.3761   -0.0212 C   0  0
    0.9587   -8.5832   -0.5912 C   0  0
   -0.1896   -6.4119    0.0382 C   0  0  2  0  0  0
    1.1665   -7.2578    0.1727 C   0  0  2  0  0  0
    1.3664   -4.4236    0.7193 C   0  0
   -0.0274   -5.0761    0.8304 C   0  0
    2.4445   -5.0187    0.1755 C   0  0
    2.3280   -6.4020   -0.5163 C   0  0  1  0  0  0
    3.6703   -7.1521   -0.5471 C   0  0
    4.8247   -6.2393   -1.0874 C   0  0
    3.7559   -4.2175    0.1559 C   0  0  1  0  0  0
    5.1023   -5.1253   -0.0231 C   0  0  2  0  0  0
    6.2940   -4.2126   -0.5614 C   0  0
    6.1619   -2.8995    0.0962 C   0  0
    4.9579   -2.1970   -0.6590 C   0  0
    3.7816   -3.2577   -1.0036 C   0  0
    4.4713   -1.0597    0.2797 C   0  0
    5.4015   -1.5667   -1.9885 C   0  0
    5.4940   -5.7592    1.3484 C   0  0
    4.9537   -6.7660    1.8180 O   0  0
    6.5612   -5.2123    2.0560 O   0  0
    1.6248   -7.5983    1.6405 C   0  0
   -1.5167   -7.2555    2.1001 C   0  0
    2.0115   -6.1434   -2.0296 C   0  0
   -2.8663  -10.0567    1.5953 C   0  0
   -2.9544  -10.6288   -0.7488 C   0  0
   -4.1081   -8.5798    0.0891 C   0  0
   -4.0951   -7.2270    0.0512 C   0  0
   -5.3296   -6.5477   -0.0463 N   0  0
   -5.3256   -9.2661    0.0665 N   0  0
   -6.4218   -8.6366   -0.0085 C   0  0
   -6.4260   -7.1960   -0.0808 C   0  0
   -7.7058   -6.5036   -0.1911 C   0  0
   -8.8421   -7.2052   -0.2115 C   0  0
   -8.8338   -8.6812   -0.1201 C   0  0
   -7.6882   -9.3570   -0.0258 C   0  0
   -2.6004   -6.0202   -0.9517 H   0  0
   -2.9252   -5.5338    0.7298 H   0  0
   -1.6508   -8.3060   -1.2941 H   0  0
   -0.1246   -9.5615    1.0428 H   0  0
   -0.3679  -10.3264   -0.5463 H   0  0
    1.8545   -9.1961   -0.4912 H   0  0
    0.7839   -8.3635   -1.6445 H   0  0
   -0.3226   -6.1610   -1.0141 H   0  0
    1.4863   -3.4121    1.1075 H   0  0
   -0.7647   -4.3670    0.4540 H   0  0
   -0.2232   -5.2803    1.8830 H   0  0
    3.9184   -7.4760    0.4636 H   0  0
    3.5746   -8.0232   -1.1952 H   0  0
    5.7245   -6.8346   -1.2423 H   0  0
    4.5238   -5.7825   -2.0303 H   0  0
    3.8351   -3.6504    1.0833 H   0  0
    6.2191   -4.0988   -1.6429 H   0  0
    7.2539   -4.6629   -0.3085 H   0  0
    5.9343   -3.0203    1.1553 H   0  0
    7.0777   -2.3190   -0.0152 H   0  0
    2.8232   -2.7470   -1.0970 H   0  0
    4.0043   -3.7859   -1.9308 H   0  0
    3.6378   -0.5346   -0.1868 H   0  0
    5.2878   -0.3595    0.4565 H   0  0
    4.1463   -1.4854    1.2290 H   0  0
    4.5451   -1.0967   -2.4719 H   0  0
    5.8068   -2.3404   -2.6406 H   0  0
    6.1677   -0.8153   -1.7972 H   0  0
    7.4342   -5.2728    1.4757 H   0  0
    0.8507   -8.1832    2.1369 H   0  0
    1.7916   -6.6737    2.1932 H   0  0
    2.5500   -8.1738    1.6084 H   0  0
   -2.4198   -7.7684    2.4310 H   0  0
   -1.4938   -6.2516    2.5240 H   0  0
   -0.6407   -7.8110    2.4350 H   0  0
    2.8168   -5.5593   -2.4751 H   0  0
    1.0740   -5.5941   -2.1166 H   0  0
    1.9234   -7.0966   -2.5510 H   0  0
   -1.9755  -10.6716    1.7239 H   0  0
   -3.7550  -10.6793    1.6990 H   0  0
   -2.8802   -9.2750    2.3548 H   0  0
   -2.0380  -11.2148   -0.6801 H   0  0
   -3.0987  -10.3002   -1.7781 H   0  0
   -3.8014  -11.2424   -0.4416 H   0  0
   -7.7344   -5.4160   -0.2568 H   0  0
   -9.7934   -6.6800   -0.2972 H   0  0
   -9.7785   -9.2250   -0.1299 H   0  0
   -7.6991  -10.4450    0.0381 H   0  0
 17 18  1  0
 18 19  1  0
 19 20  1  0
 32  2  1  0
 19 21  1  0
  7 10  1  0
 19 22  1  0
  8 12  1  0
 16 23  1  0
 11  9  2  0
 23 24  2  0
  9 10  1  0
 23 25  1  0
 12 11  1  0
  8 26  1  0
 31  1  1  0
  3 27  1  0
  4  1  1  0
  3  7  1  0
  4  5  1  0
 15 11  1  0
 12 28  1  0
 12 13  1  0
  1 29  1  0
 13 14  1  0
  1 30  1  0
 16 14  1  0
 15 16  1  0
 31 32  2  0
  5  6  1  0
 32 33  1  0
 33 36  2  0
  8  6  1  0
 35 34  2  0
 34 31  1  0
  7  8  1  0
  3  2  1  0
 35 36  1  0
  3  4  1  0
 36 37  1  0
 37 38  2  0
 15 20  1  0
 38 39  1  0
 16 17  1  0
 39 40  2  0
 40 35  1  0
  2 41  1  0
  2 42  1  0
  4 43  1  0
  5 44  1  0
  5 45  1  0
  6 46  1  0
  6 47  1  0
  7 48  1  0
  9 49  1  0
 10 50  1  0
 10 51  1  0
 13 52  1  0
 13 53  1  0
 14 54  1  0
 14 55  1  0
 15 56  1  0
 17 57  1  0
 17 58  1  0
 18 59  1  0
 18 60  1  0
 20 61  1  0
 20 62  1  0
 21 63  1  0
 21 64  1  0
 21 65  1  0
 22 66  1  0
 22 67  1  0
 22 68  1  0
 25 69  1  0
 26 70  1  0
 26 71  1  0
 26 72  1  0
 27 73  1  0
 27 74  1  0
 27 75  1  0
 28 76  1  0
 28 77  1  0
 28 78  1  0
 29 79  1  0
 29 80  1  0
 29 81  1  0
 30 82  1  0
 30 83  1  0
 30 84  1  0
 37 85  1  0
 38 86  1  0
 39 87  1  0
 40 88  1  0
M  END
> <Name>
Molecule

> <Clean Energy>
121.666

> <From>
www.bindingDB.org

> <BindingDB Reactant_set_id>
50533718

> <Ligand InChI>
InChI=1S/C36H48N2O2/c1-31(2)16-18-36(30(39)40)19-17-34(6)22(23(36)20-31)12-13-28-33(5)21-26-29(38-25-11-9-8-10-24(25)37-26)32(3,4)27(33)14-15-35(28,34)7/h8-12,23,27-28H,13-21H2,1-7H3,(H,39,40)/t23-,27
-,28+,33-,34+,35+,36-/m0/s1

> <Ligand InChI Key>
XEUJIKABFNCODT-KCDITZHISA-N

> <BindingDB MonomerID>
50299738

> <BindingDB Ligand Name>
(4aS,6aS,6bR,8aR,16aR,16bR,18bS)-2,2,6a,6b,9,9,16a-heptamethyl-1,2,3,4,4a,5,6,6a,6b,7,8,8a,9,16,16a,16b,17,18b-octadecahydrochryseno[2,1-b]phenazine-4a-carboxylic acid::CHEMBL541940

> <Target Name>
Tyrosine-protein phosphatase non-receptor type 1

> <Target Source Organism According to Curator or DataSource>
Homo sapiens

> <IC50 (nM)>
1430

> <Curation/DataSource>
ChEMBL

> <Article DOI>
10.1016/j.bmcl.2009.10.017

> <BindingDB Entry DOI>
10.7270/Q2BR8S8F

> <PMID>
19846303

> <Authors>
Qiu, WW; Shen, Q; Yang, F; Wang, B; Zou, H; Li, JY; Li, J; Tang, J

> <Institution>
East China Normal University

> <Link to Ligand in BindingDB>
http://www.bindingdb.org/bind/chemsearch/marvin/MolStructure.jsp?monomerid=50299738

> <Link to Ligand-Target Pair in BindingDB>
http://www.bindingdb.org/jsp/dbsearch/PrimarySearch_ki.jsp?energyterm=kJ/mole&tag=pol&polymerid=2622&target=Tyrosine-protein+phosphatase+non-receptor+type+1&column=ki&startPg=0&Increment=50&submit=Sea
rch
http://www.bindingdb.org/jsp/dbsearch/PrimarySearch_ki.jsp?energyterm=kJ/mole&tag=r21&monomerid=50299738&enzyme=Tyrosine-protein+phosphatase+non-receptor+type+1&column=ki&startPg=0&Increment=50&submit
=Search

> <PubChem CID of Ligand>
42644187

> <PubChem SID of Ligand>
104141267

> <ChEMBL ID of Ligand>
CHEMBL541940

> <ZINC ID of Ligand>
ZINC49853701

> <Number of Protein Chains in Target (bigger than 1 implies a multichain complex)>
1

> <BindingDB Target Chain Sequence>
MEMEKEFEQIDKSGSWAAIYQDIRHEASDFPCRVAKLPKNKNRNRYRDVSPFDHSRIKLHQEDNDYINASLIKMEEAQRSYILTQGPLPNTCGHFWEMVWEQKSRGVVMLNRVMEKGSLKCAQYWPQKEEKEMIFEDTNLKLTLISEDIKSYYTVRQLELENLTTQETREILHFHYTTWPDFGVPESPASFLNFLFKVRE
SGSLSPEHGPVVVHCSAGIGRSGTFCLADTCLLLMDKRKDPSSVDIKKVLLEMRKFRMGLIQTADQLRFSYLAVIEGAKFIMGDSSVQDQWKELSHEDLEPPPEHIPPPPRPPKRILEPHNGKCREFFPNHQWVKEETQEDKDCPIKEEKGSPLNAAPYGIESMSQDTEVRSRVVGGSLRGAQAASPAKGEPSLPEKDED
HALSYWKPFLVNMCVATVLTAGAYLCYRFLFNSNT

> <PDB ID(s) of Target Chain>
1BZJ,1G7G,1GFY,1JF7,1KAK,1KAV,1LQF,1NL9,1NNY,1NO6,1NZ7,1OEM,1OEO,1OES,1OET,1OEU,1OEV,1ONY,1ONZ,1PH0,1PXH,1PYN,1Q1M,1Q6J,1Q6M,1Q6N,1Q6P,1Q6S,1Q6T,1QXK,1SUG,1T48,1T49,1T4J,1WAX,1XBO,2AZR,2B07,2BGD,2BGE,
2CM2,2CM3,2CM7,2CM8,2CMA,2CMB,2CMC,2CNE,2CNF,2CNG,2CNH,2CNI,2F6T,2F6V,2F6W,2F6Y,2F6Z,2F70,2F71,2FJN,2H4G,2H4K,2HB1,2HNP,2HNQ,2QBP,2QBQ,2QBR,2QBS,2VEU,2VEV,2VEW,2VEX,2VEY,2ZMM,2ZN7,3A5J,3CWE,3D9C,3EAX,
3EB1,3EU0,3I7Z,3I80,3SME,4BJO,4I8N,4QBW,4Y14,5K9V,5K9W,5KA0,5KA1,5T19,6B90,6NTP,6W30,7KEY,7KLX,7LFO,7MN9,7MNA,8DU7,8G65,8G67,8G68,8G69,8G6A,8SKL

> <UniProt (SwissProt) Recommended Name of Target Chain>
Tyrosine-protein phosphatase non-receptor type 1

> <UniProt (SwissProt) Entry Name of Target Chain>
PTN1_HUMAN

> <UniProt (SwissProt) Primary ID of Target Chain>
P18031

> <UniProt (SwissProt) Secondary ID(s) of Target Chain>
Q5TGD8 Q9BQV9 Q9NQQ4

$$$$
Molecule
  SciTegic10242319433D

 93 97  0  0  0  0            999 V2000
   36.6786   -9.4843    1.1370 O   0  0
   36.2560  -10.5248    0.1173 S   0  0
   36.5440   -9.9959   -1.2755 O   0  0
   31.1549    1.6679   -1.2433 O   0  0
   31.7478    1.1045    0.0340 S   0  0
   31.1052    1.8079    1.2136 O   0  0
   25.6566   -8.6922   -0.7846 C   0  0
   27.2268   -8.5545   -0.7055 C   0  0  1  0  0  0
   27.2859   -7.0227   -0.4202 C   0  0  1  0  0  0
   26.3030   -6.9363    0.7920 C   0  0
   25.1999   -7.7608    0.2496 N   0  0
   23.7878   -7.5283    0.6031 C   0  0
   23.5365   -6.6139    1.3940 O   0  0
   22.6119   -8.3937    0.1291 C   0  0
   21.3459   -8.0124    0.4638 N   0  0
   22.8081   -9.4331   -0.5081 O   0  0
   28.6532   -6.5501   -0.1843 O   0  0
   27.8518   -9.3681    0.3842 O   0  0
   28.9437   -5.1632   -0.0815 C   0  0
   29.3495   -9.4449    0.2823 C   0  0
   30.2184   -4.8192    0.1254 C   0  0
   30.6256   -3.4093    0.1732 C   0  0
   29.7148   -2.4544    0.0049 C   0  0
   28.3037   -2.8252   -0.2115 C   0  0
   27.9356   -4.1087   -0.2532 C   0  0
   30.0708  -10.1527    1.1638 C   0  0
   31.5769  -10.2221    1.0399 C   0  0
   32.2002   -9.5709    0.0496 C   0  0
   31.4145   -8.8215   -0.9061 C   0  0
   30.0918   -8.7713   -0.8120 C   0  0
   30.1072   -1.0294   -0.0073 C   0  0
   31.3790   -0.6386    0.1122 C   0  0
   33.4247    1.3969    0.0444 O   0  0
   33.6401    2.8139   -0.0571 C   0  0
   35.1489    3.1231   -0.0667 C   0  0
   33.7212   -9.5524   -0.1196 C   0  0
   34.4607  -10.8461    0.2926 C   0  0
   37.1659  -11.9441    0.3539 O   0  0
   38.5577  -11.6371    0.1683 C   0  0
   39.4048  -12.9160    0.3135 C   0  0
   20.1155   -8.7696    0.2182 C   0  0
   18.9256   -8.1628    0.3282 C   0  0
   17.6511   -8.9301    0.1721 C   0  0
   17.6766  -10.2487   -0.0586 C   0  0
   18.9977  -10.8987   -0.1799 C   0  0
   20.1363  -10.2100   -0.0568 C   0  0
   16.5007  -11.1310   -0.1813 O   0  0
   15.0955  -10.7166   -0.1072 C   0  0
   14.6638   -9.4581    0.0301 C   0  0
   13.2163   -9.1632    0.0868 C   0  0
   12.3242  -10.1501    0.0066 C   0  0
   12.7810  -11.5260   -0.1378 C   0  0
   14.0853  -11.7940   -0.1941 C   0  0
   10.6281   -9.8042    0.0692 Cl  0  0
   25.2856   -8.4012   -1.7673 H   0  0
   25.3399   -9.7114   -0.5633 H   0  0
   27.6828   -8.7850   -1.6683 H   0  0
   26.8605   -6.4832   -1.2665 H   0  0
   26.7302   -7.3686    1.6968 H   0  0
   25.9884   -5.9120    0.9916 H   0  0
   21.2407   -7.0672    0.9540 H   0  0
   30.9684   -5.5984    0.2609 H   0  0
   31.6693   -3.1464    0.3458 H   0  0
   27.5539   -2.0443   -0.3387 H   0  0
   26.8904   -4.3727   -0.4140 H   0  0
   29.5689  -10.6812    1.9743 H   0  0
   32.1557  -10.8031    1.7580 H   0  0
   31.9160   -8.2905   -1.7151 H   0  0
   29.5314   -8.2163   -1.5643 H   0  0
   29.3320   -0.2711   -0.1176 H   0  0
   32.1747   -1.3699    0.2546 H   0  0
   33.1915    3.1810   -0.9802 H   0  0
   33.1763    3.3104    0.7953 H   0  0
   35.2991    4.1999   -0.1439 H   0  0
   35.6160    2.6296   -0.9190 H   0  0
   35.6008    2.7590    0.8560 H   0  0
   33.9381   -9.3642   -1.1711 H   0  0
   34.1147   -8.7354    0.4851 H   0  0
   34.2258  -11.0966    1.3271 H   0  0
   34.1637  -11.6690   -0.3575 H   0  0
   38.7049  -11.2182   -0.8272 H   0  0
   38.8699  -10.9107    0.9186 H   0  0
   40.4578  -12.6731    0.1712 H   0  0
   39.0959  -13.6442   -0.4365 H   0  0
   39.2608  -13.3367    1.3087 H   0  0
   18.8860   -7.0933    0.5347 H   0  0
   16.6950   -8.4121    0.2467 H   0  0
   19.0451  -11.9700   -0.3754 H   0  0
   21.0914  -10.7246   -0.1620 H   0  0
   15.3848   -8.6437    0.1008 H   0  0
   12.8768   -8.1331    0.1946 H   0  0
   12.0553  -12.3369   -0.1998 H   0  0
   14.4141  -12.8271   -0.3064 H   0  0
  2  1  2  0
  3  2  2  0
  5  4  2  0
  6  5  2  0
  7  8  1  0
  8  9  1  0
  9 10  1  0
 10 11  1  0
 11  7  1  0
 11 12  1  0
 12 13  2  0
 12 14  1  0
 14 15  1  0
 14 16  2  0
  9 17  1  0
  8 18  1  0
 17 19  1  0
 18 20  1  0
 19 21  2  0
 21 22  1  0
 22 23  2  0
 23 24  1  0
 24 25  2  0
 25 19  1  0
 20 26  2  0
 26 27  1  0
 27 28  2  0
 28 29  1  0
 29 30  2  0
 30 20  1  0
 23 31  1  0
 31 32  2  0
 32  5  1  0
  5 33  1  0
 33 34  1  0
 34 35  1  0
 28 36  1  0
 36 37  1  0
 37  2  1  0
  2 38  1  0
 38 39  1  0
 39 40  1  0
 15 41  1  0
 41 42  2  0
 42 43  1  0
 43 44  2  0
 44 45  1  0
 45 46  2  0
 46 41  1  0
 44 47  1  0
 47 48  1  0
 48 49  2  0
 49 50  1  0
 50 51  2  0
 51 52  1  0
 52 53  2  0
 53 48  1  0
 51 54  1  0
  7 55  1  0
  7 56  1  0
  8 57  1  0
  9 58  1  0
 10 59  1  0
 10 60  1  0
 15 61  1  0
 21 62  1  0
 22 63  1  0
 24 64  1  0
 25 65  1  0
 26 66  1  0
 27 67  1  0
 29 68  1  0
 30 69  1  0
 31 70  1  0
 32 71  1  0
 34 72  1  0
 34 73  1  0
 35 74  1  0
 35 75  1  0
 35 76  1  0
 36 77  1  0
 36 78  1  0
 37 79  1  0
 37 80  1  0
 39 81  1  0
 39 82  1  0
 40 83  1  0
 40 84  1  0
 40 85  1  0
 42 86  1  0
 43 87  1  0
 45 88  1  0
 46 89  1  0
 49 90  1  0
 50 91  1  0
 52 92  1  0
 53 93  1  0
M  END
> <Name>
Molecule

> <Clean Energy>
51.5494

> <From>
www.bindingDB.org

> <BindingDB Reactant_set_id>
51310209

> <Ligand InChI>
InChI=1S/C38H39ClN2O11S2/c1-3-48-53(44,45)23-21-27-5-13-33(14-6-27)51-35-25-41(26-36(35)52-34-15-7-28(8-16-34)22-24-54(46,47)49-4-2)38(43)37(42)40-30-11-19-32(20-12-30)50-31-17-9-29(39)10-18-31/h5-21,
23,35-36H,3-4,22,24-26H2,1-2H3,(H,40,42)/b23-21+/t35-,36+/m1/s1

> <Ligand InChI Key>
UUWPXIMFBFLAMX-YXAPQHGCSA-N

> <BindingDB MonomerID>
50531707

> <BindingDB Ligand Name>
CHEMBL4579462

> <Target Name>
Tyrosine-protein phosphatase non-receptor type 1

> <Target Source Organism According to Curator or DataSource>
Homo sapiens

> <IC50 (nM)>
1450

> <Curation/DataSource>
ChEMBL

> <Article DOI>
10.1016/j.ejmech.2018.12.032

> <BindingDB Entry DOI>
10.7270/Q2KK9G90

> <PMID>
30611982

> <Authors>
Xie, F; Yang, F; Liang, Y; Li, L; Xia, Y; Jiang, F; Liu, W; Qi, Y; Chowdhury, SR; Xie, D; Fu, L

> <Institution>
Shanghai Jiao Tong University (SJTU)

> <Link to Ligand in BindingDB>
http://www.bindingdb.org/bind/chemsearch/marvin/MolStructure.jsp?monomerid=50531707

> <Link to Ligand-Target Pair in BindingDB>
http://www.bindingdb.org/jsp/dbsearch/PrimarySearch_ki.jsp?energyterm=kJ/mole&tag=pol&polymerid=2622&target=Tyrosine-protein+phosphatase+non-receptor+type+1&column=ki&startPg=0&Increment=50&submit=Sea
rch
http://www.bindingdb.org/jsp/dbsearch/PrimarySearch_ki.jsp?energyterm=kJ/mole&tag=r21&monomerid=50531707&enzyme=Tyrosine-protein+phosphatase+non-receptor+type+1&column=ki&startPg=0&Increment=50&submit
=Search

> <PubChem CID of Ligand>
155565389

> <PubChem SID of Ligand>
440740289

> <Number of Protein Chains in Target (bigger than 1 implies a multichain complex)>
1

> <BindingDB Target Chain Sequence>
MEMEKEFEQIDKSGSWAAIYQDIRHEASDFPCRVAKLPKNKNRNRYRDVSPFDHSRIKLHQEDNDYINASLIKMEEAQRSYILTQGPLPNTCGHFWEMVWEQKSRGVVMLNRVMEKGSLKCAQYWPQKEEKEMIFEDTNLKLTLISEDIKSYYTVRQLELENLTTQETREILHFHYTTWPDFGVPESPASFLNFLFKVRE
SGSLSPEHGPVVVHCSAGIGRSGTFCLADTCLLLMDKRKDPSSVDIKKVLLEMRKFRMGLIQTADQLRFSYLAVIEGAKFIMGDSSVQDQWKELSHEDLEPPPEHIPPPPRPPKRILEPHNGKCREFFPNHQWVKEETQEDKDCPIKEEKGSPLNAAPYGIESMSQDTEVRSRVVGGSLRGAQAASPAKGEPSLPEKDED
HALSYWKPFLVNMCVATVLTAGAYLCYRFLFNSNT

> <PDB ID(s) of Target Chain>
1BZJ,1G7G,1GFY,1JF7,1KAK,1KAV,1LQF,1NL9,1NNY,1NO6,1NZ7,1OEM,1OEO,1OES,1OET,1OEU,1OEV,1ONY,1ONZ,1PH0,1PXH,1PYN,1Q1M,1Q6J,1Q6M,1Q6N,1Q6P,1Q6S,1Q6T,1QXK,1SUG,1T48,1T49,1T4J,1WAX,1XBO,2AZR,2B07,2BGD,2BGE,
2CM2,2CM3,2CM7,2CM8,2CMA,2CMB,2CMC,2CNE,2CNF,2CNG,2CNH,2CNI,2F6T,2F6V,2F6W,2F6Y,2F6Z,2F70,2F71,2FJN,2H4G,2H4K,2HB1,2HNP,2HNQ,2QBP,2QBQ,2QBR,2QBS,2VEU,2VEV,2VEW,2VEX,2VEY,2ZMM,2ZN7,3A5J,3CWE,3D9C,3EAX,
3EB1,3EU0,3I7Z,3I80,3SME,4BJO,4I8N,4QBW,4Y14,5K9V,5K9W,5KA0,5KA1,5T19,6B90,6NTP,6W30,7KEY,7KLX,7LFO,7MN9,7MNA,8DU7,8G65,8G67,8G68,8G69,8G6A,8SKL

> <UniProt (SwissProt) Recommended Name of Target Chain>
Tyrosine-protein phosphatase non-receptor type 1

> <UniProt (SwissProt) Entry Name of Target Chain>
PTN1_HUMAN

> <UniProt (SwissProt) Primary ID of Target Chain>
P18031

> <UniProt (SwissProt) Secondary ID(s) of Target Chain>
Q5TGD8 Q9BQV9 Q9NQQ4

$$$$
Molecule
  SciTegic10242319433D

 68 73  0  0  0  0            999 V2000
   18.7442   -9.3559    0.0168 C   0  0
   18.8147  -10.6917   -0.0037 C   0  0
   20.1454  -11.3691   -0.0182 C   0  0
   20.0019   -8.5817    0.0271 C   0  0
   21.1875   -9.2016    0.0143 C   0  0
   21.2699  -10.6445   -0.0099 C   0  0
   22.6205  -11.2857   -0.0328 C   0  0
   23.7367  -10.5329   -0.0283 C   0  0
   23.6123   -9.0532    0.0025 C   0  0
   22.4268   -8.4347    0.0226 C   0  0
   17.4816   -8.6569    0.0261 O   0  0
   25.1115  -11.2117   -0.0637 C   0  0
   26.3087  -10.5777   -0.0765 C   0  0
   27.6555  -11.2491   -0.1203 C   0  0
   28.8132  -10.2708   -0.1287 N   0  0
   28.2787   -8.8965   -0.1038 C   0  0
   26.5876   -8.9341   -0.0573 S   0  0
   29.0772   -7.5497   -0.1647 S   0  0
   27.7628  -12.4762   -0.1558 O   0  0
   30.3384  -10.6346   -0.1846 C   0  0  2  0  0  0
   30.7058  -12.0256    0.3915 C   0  0
   31.3470   -9.4532    0.2490 C   0  0
   32.8791   -9.5953   -0.0530 C   0  0
   33.5486  -10.6899   -0.4476 C   0  0
   34.9371  -10.3359   -0.5870 N   0  0
   33.8533   -8.5140    0.0412 C   0  0
   35.0333   -8.9801   -0.2740 C   0  0
   36.2225   -8.1444   -0.2863 C   0  0
   36.0704   -6.8540    0.0332 C   0  0
   34.7164   -6.3178    0.3896 C   0  0
   33.6440   -7.1222    0.3967 C   0  0
   29.9497  -13.1491    0.1204 O   0  0
   31.7448  -12.1738    1.0416 O   0  0
   16.3357   -9.5497    0.0106 C   0  0
   15.0045   -8.7796    0.0071 C   0  0
   14.9766   -7.4447    0.0096 C   0  0
   13.6778   -6.7286    0.0061 C   0  0
   12.5296   -7.4136    0.0004 C   0  0
   12.5674   -8.8779   -0.0026 C   0  0
   13.7346   -9.5242    0.0005 C   0  0
   11.2761   -6.7562   -0.0029 O   0  0
   11.4180   -5.3267    0.0007 C   0  0
   17.9007  -11.2856   -0.0098 H   0  0
   20.2006  -12.4576   -0.0355 H   0  0
   19.9637   -7.4925    0.0452 H   0  0
   22.7022  -12.3725   -0.0533 H   0  0
   24.5200   -8.4497    0.0090 H   0  0
   22.3870   -7.3457    0.0455 H   0  0
   25.1267  -12.3015   -0.0799 H   0  0
   30.5296  -10.7476   -1.2517 H   0  0
   31.0079   -8.5471   -0.2530 H   0  0
   31.2467   -9.3310    1.3275 H   0  0
   33.1168  -11.6740   -0.6302 H   0  0
   35.7377  -10.9851   -0.8743 H   0  0
   37.1994   -8.5527   -0.5455 H   0  0
   36.9347   -6.1898    0.0344 H   0  0
   34.6029   -5.2643    0.6452 H   0  0
   32.6550   -6.7465    0.6589 H   0  0
   28.9687  -13.0029    0.4652 H   0  0
   16.3854  -10.1702   -0.8842 H   0  0
   16.3725  -10.1845    0.8959 H   0  0
   15.9093   -6.8807    0.0143 H   0  0
   13.6592   -5.6388    0.0081 H   0  0
   11.6355   -9.4434   -0.0073 H   0  0
   13.7480  -10.6142   -0.0019 H   0  0
   10.4315   -4.8631   -0.0019 H   0  0
   11.9684   -5.0135   -0.8865 H   0  0
   11.9618   -5.0173    0.8933 H   0  0
  1  2  2  0
  2  3  1  0
  3  6  2  0
  5  4  2  0
  4  1  1  0
  5  6  1  0
  6  7  1  0
  7  8  2  0
  8  9  1  0
  9 10  2  0
 10  5  1  0
  1 11  1  0
  8 12  1  0
 12 13  2  0
 13 14  1  0
 14 15  1  0
 15 16  1  0
 16 17  1  0
 17 13  1  0
 16 18  2  0
 14 19  2  0
 15 20  1  0
 20 21  1  0
 20 22  1  0
 22 23  1  0
 23 24  2  0
 24 25  1  0
 25 27  1  0
 26 23  1  0
 26 27  2  0
 27 28  1  0
 28 29  2  0
 29 30  1  0
 30 31  2  0
 31 26  1  0
 21 32  1  0
 21 33  2  0
 11 34  1  0
 34 35  1  0
 35 36  2  0
 36 37  1  0
 37 38  2  0
 38 39  1  0
 39 40  2  0
 40 35  1  0
 38 41  1  0
 41 42  1  0
  2 43  1  0
  3 44  1  0
  4 45  1  0
  7 46  1  0
  9 47  1  0
 10 48  1  0
 12 49  1  0
 20 50  1  0
 22 51  1  0
 22 52  1  0
 24 53  1  0
 25 54  1  0
 28 55  1  0
 29 56  1  0
 30 57  1  0
 31 58  1  0
 32 59  1  0
 34 60  1  0
 34 61  1  0
 36 62  1  0
 37 63  1  0
 39 64  1  0
 40 65  1  0
 42 66  1  0
 42 67  1  0
 42 68  1  0
M  END
> <Name>
Molecule

> <Clean Energy>
61.3277

> <From>
www.bindingDB.org

> <BindingDB Reactant_set_id>
51252822

> <Ligand InChI>
InChI=1S/C33H26N2O5S2/c1-39-25-11-7-20(8-12-25)19-40-26-13-10-22-14-21(6-9-23(22)16-26)15-30-31(36)35(33(41)42-30)29(32(37)38)17-24-18-34-28-5-3-2-4-27(24)28/h2-16,18,29,34H,17,19H2,1H3,(H,37,38)/b30-
15-

> <Ligand InChI Key>
BLIWTSFVZIDADB-MNDYBZJGSA-N

> <BindingDB MonomerID>
50512273

> <BindingDB Ligand Name>
CHEMBL4562962

> <Target Name>
Tyrosine-protein phosphatase non-receptor type 1

> <Target Source Organism According to Curator or DataSource>
Homo sapiens

> <IC50 (nM)>
1450

> <Curation/DataSource>
ChEMBL

> <Article DOI>
10.1016/j.ejmech.2019.03.059

> <BindingDB Entry DOI>
10.7270/Q2028VWB

> <PMID>
30978561

> <Authors>
Liu, H; Sun, D; Du, H; Zheng, C; Li, J; Piao, H; Li, J; Sun, L

> <Institution>
Yanbian University College of Pharmacy

> <Link to Ligand in BindingDB>
http://www.bindingdb.org/bind/chemsearch/marvin/MolStructure.jsp?monomerid=50512273

> <Link to Ligand-Target Pair in BindingDB>
http://www.bindingdb.org/jsp/dbsearch/PrimarySearch_ki.jsp?energyterm=kJ/mole&tag=pol&polymerid=2622&target=Tyrosine-protein+phosphatase+non-receptor+type+1&column=ki&startPg=0&Increment=50&submit=Sea
rch
http://www.bindingdb.org/jsp/dbsearch/PrimarySearch_ki.jsp?energyterm=kJ/mole&tag=r21&monomerid=50512273&enzyme=Tyrosine-protein+phosphatase+non-receptor+type+1&column=ki&startPg=0&Increment=50&submit
=Search

> <PubChem CID of Ligand>
155559338

> <PubChem SID of Ligand>
440720855

> <Number of Protein Chains in Target (bigger than 1 implies a multichain complex)>
1

> <BindingDB Target Chain Sequence>
MEMEKEFEQIDKSGSWAAIYQDIRHEASDFPCRVAKLPKNKNRNRYRDVSPFDHSRIKLHQEDNDYINASLIKMEEAQRSYILTQGPLPNTCGHFWEMVWEQKSRGVVMLNRVMEKGSLKCAQYWPQKEEKEMIFEDTNLKLTLISEDIKSYYTVRQLELENLTTQETREILHFHYTTWPDFGVPESPASFLNFLFKVRE
SGSLSPEHGPVVVHCSAGIGRSGTFCLADTCLLLMDKRKDPSSVDIKKVLLEMRKFRMGLIQTADQLRFSYLAVIEGAKFIMGDSSVQDQWKELSHEDLEPPPEHIPPPPRPPKRILEPHNGKCREFFPNHQWVKEETQEDKDCPIKEEKGSPLNAAPYGIESMSQDTEVRSRVVGGSLRGAQAASPAKGEPSLPEKDED
HALSYWKPFLVNMCVATVLTAGAYLCYRFLFNSNT

> <PDB ID(s) of Target Chain>
1BZJ,1G7G,1GFY,1JF7,1KAK,1KAV,1LQF,1NL9,1NNY,1NO6,1NZ7,1OEM,1OEO,1OES,1OET,1OEU,1OEV,1ONY,1ONZ,1PH0,1PXH,1PYN,1Q1M,1Q6J,1Q6M,1Q6N,1Q6P,1Q6S,1Q6T,1QXK,1SUG,1T48,1T49,1T4J,1WAX,1XBO,2AZR,2B07,2BGD,2BGE,
2CM2,2CM3,2CM7,2CM8,2CMA,2CMB,2CMC,2CNE,2CNF,2CNG,2CNH,2CNI,2F6T,2F6V,2F6W,2F6Y,2F6Z,2F70,2F71,2FJN,2H4G,2H4K,2HB1,2HNP,2HNQ,2QBP,2QBQ,2QBR,2QBS,2VEU,2VEV,2VEW,2VEX,2VEY,2ZMM,2ZN7,3A5J,3CWE,3D9C,3EAX,
3EB1,3EU0,3I7Z,3I80,3SME,4BJO,4I8N,4QBW,4Y14,5K9V,5K9W,5KA0,5KA1,5T19,6B90,6NTP,6W30,7KEY,7KLX,7LFO,7MN9,7MNA,8DU7,8G65,8G67,8G68,8G69,8G6A,8SKL

> <UniProt (SwissProt) Recommended Name of Target Chain>
Tyrosine-protein phosphatase non-receptor type 1

> <UniProt (SwissProt) Entry Name of Target Chain>
PTN1_HUMAN

> <UniProt (SwissProt) Primary ID of Target Chain>
P18031

> <UniProt (SwissProt) Secondary ID(s) of Target Chain>
Q5TGD8 Q9BQV9 Q9NQQ4

$$$$
Molecule
  SciTegic10242319433D

 55 58  0  0  0  0            999 V2000
   16.3727   -8.5606    1.3533 C   0  0
   15.6543   -8.2972    0.0153 C   0  0
   16.5604   -8.8925   -1.0802 C   0  0
    4.6393   -4.7983   -0.0207 C   0  0
    4.5577   -6.1960    0.0111 C   0  0
    5.7349   -6.9402    0.0199 C   0  0
    5.8854   -4.1794   -0.0466 C   0  0
    7.0552   -4.9275   -0.0401 C   0  0
    6.9800   -6.3127   -0.0047 C   0  0
    8.1589   -7.0482    0.0047 C   0  0
    9.3720   -6.3589   -0.0265 C   0  0
    9.3280   -4.9688   -0.0652 C   0  0
    8.2026   -4.3271   -0.0685 O   0  0
    8.1106   -8.2816    0.0368 O   0  0
    3.5145   -3.9783   -0.0293 O   0  0
   10.7121   -7.0568   -0.0178 C   0  0
   10.8023   -8.4407    0.0953 C   0  0
   12.0380   -9.0752    0.1105 C   0  0
   11.8867   -6.3133   -0.1199 C   0  0
   13.1271   -6.9496   -0.1081 C   0  0
   13.2047   -8.3304    0.0096 C   0  0
   14.4126   -8.9731    0.0275 O   0  0
   15.5352   -6.7971   -0.1775 C   0  0
   14.3536   -6.1826   -0.2246 C   0  0
    5.6520   -8.3284    0.0520 O   0  0
   12.1078  -10.4574    0.2288 O   0  0
    3.2268   -6.9947    0.0371 C   0  0
    1.9574   -6.1725    0.0180 C   0  0
    0.7536   -6.7490    0.0077 C   0  0
   -0.4806   -5.8919   -0.0105 C   0  0
    0.6194   -8.2476    0.0133 C   0  0
   15.7756   -8.1592    2.1721 H   0  0
   17.3486   -8.0751    1.3440 H   0  0
   16.5027   -9.6340    1.4914 H   0  0
   16.1018   -8.7360   -2.0565 H   0  0
   16.6876   -9.9610   -0.9063 H   0  0
   17.5335   -8.4021   -1.0536 H   0  0
    5.9440   -3.0913   -0.0724 H   0  0
   10.2616   -4.4069   -0.0935 H   0  0
    2.9324   -4.1907   -0.8771 H   0  0
    9.8916   -9.0346    0.1729 H   0  0
   11.8351   -5.2282   -0.2095 H   0  0
   16.4438   -6.2038   -0.2806 H   0  0
   14.3082   -5.1009   -0.3509 H   0  0
    5.1430   -8.6292    0.9198 H   0  0
   11.6591  -10.7552    1.1302 H   0  0
    3.2135   -7.6481   -0.8353 H   0  0
    3.2186   -7.5989    0.9443 H   0  0
    2.0273   -5.0848    0.0125 H   0  0
   -1.3655   -6.5283   -0.0170 H   0  0
   -0.4766   -5.2671   -0.9036 H   0  0
   -0.4963   -5.2578    0.8760 H   0  0
   -0.4363   -8.5183    0.0032 H   0  0
    1.0889   -8.6515    0.9103 H   0  0
    1.1082   -8.6600   -0.8694 H   0  0
  2  1  1  0
  3  2  1  0
  4  5  4  0
  5  6  4  0
  6  9  4  0
  8  7  4  0
  7  4  4  0
  8  9  4  0
  8 13  4  0
  9 10  4  0
 10 11  4  0
 11 12  4  0
 12 13  4  0
 10 14  2  0
  4 15  1  0
 11 16  1  0
 16 17  4  0
 17 18  4  0
 18 21  4  0
 20 19  4  0
 19 16  4  0
 20 21  4  0
 20 24  1  0
 21 22  1  0
 22  2  1  0
  2 23  1  0
 23 24  2  0
  6 25  1  0
 18 26  1  0
  5 27  1  0
 27 28  1  0
 28 29  2  0
 29 30  1  0
 29 31  1  0
  1 32  1  0
  1 33  1  0
  1 34  1  0
  3 35  1  0
  3 36  1  0
  3 37  1  0
  7 38  1  0
 12 39  1  0
 15 40  1  0
 17 41  1  0
 19 42  1  0
 23 43  1  0
 24 44  1  0
 25 45  1  0
 26 46  1  0
 27 47  1  0
 27 48  1  0
 28 49  1  0
 30 50  1  0
 30 51  1  0
 30 52  1  0
 31 53  1  0
 31 54  1  0
 31 55  1  0
M  END
> <Name>
Molecule

> <Clean Energy>
10.176

> <From>
www.bindingDB.org

> <BindingDB Reactant_set_id>
50794094

> <Ligand InChI>
InChI=1S/C25H24O6/c1-13(2)5-6-16-18(26)11-20-21(22(16)28)23(29)17(12-30-20)15-9-14-7-8-25(3,4)31-24(14)19(27)10-15/h5,7-12,26-28H,6H2,1-4H3

> <Ligand InChI Key>
CCUZOQMNQONIMX-UHFFFAOYSA-N

> <BindingDB MonomerID>
50253212

> <BindingDB Ligand Name>
CHEMBL4088099

> <Target Name>
Tyrosine-protein phosphatase non-receptor type 1

> <Target Source Organism According to Curator or DataSource>
Homo sapiens

> <IC50 (nM)>
1480

> <Curation/DataSource>
ChEMBL

> <Article DOI>
10.1016/j.bmc.2017.05.009

> <BindingDB Entry DOI>
10.7270/Q2C82CRZ

> <PMID>
28522265

> <Authors>
Lin, Y; Kuang, Y; Li, K; Wang, S; Song, W; Qiao, X; Sabir, G; Ye, M

> <Institution>
Peking University

> <Link to Ligand in BindingDB>
http://www.bindingdb.org/bind/chemsearch/marvin/MolStructure.jsp?monomerid=50253212

> <Link to Ligand-Target Pair in BindingDB>
http://www.bindingdb.org/jsp/dbsearch/PrimarySearch_ki.jsp?energyterm=kJ/mole&tag=pol&polymerid=2622&target=Tyrosine-protein+phosphatase+non-receptor+type+1&column=ki&startPg=0&Increment=50&submit=Sea
rch
http://www.bindingdb.org/jsp/dbsearch/PrimarySearch_ki.jsp?energyterm=kJ/mole&tag=r21&monomerid=50253212&enzyme=Tyrosine-protein+phosphatase+non-receptor+type+1&column=ki&startPg=0&Increment=50&submit
=Search

> <PubChem CID of Ligand>
5481949

> <PubChem SID of Ligand>
401957772

> <Number of Protein Chains in Target (bigger than 1 implies a multichain complex)>
1

> <BindingDB Target Chain Sequence>
MEMEKEFEQIDKSGSWAAIYQDIRHEASDFPCRVAKLPKNKNRNRYRDVSPFDHSRIKLHQEDNDYINASLIKMEEAQRSYILTQGPLPNTCGHFWEMVWEQKSRGVVMLNRVMEKGSLKCAQYWPQKEEKEMIFEDTNLKLTLISEDIKSYYTVRQLELENLTTQETREILHFHYTTWPDFGVPESPASFLNFLFKVRE
SGSLSPEHGPVVVHCSAGIGRSGTFCLADTCLLLMDKRKDPSSVDIKKVLLEMRKFRMGLIQTADQLRFSYLAVIEGAKFIMGDSSVQDQWKELSHEDLEPPPEHIPPPPRPPKRILEPHNGKCREFFPNHQWVKEETQEDKDCPIKEEKGSPLNAAPYGIESMSQDTEVRSRVVGGSLRGAQAASPAKGEPSLPEKDED
HALSYWKPFLVNMCVATVLTAGAYLCYRFLFNSNT

> <PDB ID(s) of Target Chain>
1BZJ,1G7G,1GFY,1JF7,1KAK,1KAV,1LQF,1NL9,1NNY,1NO6,1NZ7,1OEM,1OEO,1OES,1OET,1OEU,1OEV,1ONY,1ONZ,1PH0,1PXH,1PYN,1Q1M,1Q6J,1Q6M,1Q6N,1Q6P,1Q6S,1Q6T,1QXK,1SUG,1T48,1T49,1T4J,1WAX,1XBO,2AZR,2B07,2BGD,2BGE,
2CM2,2CM3,2CM7,2CM8,2CMA,2CMB,2CMC,2CNE,2CNF,2CNG,2CNH,2CNI,2F6T,2F6V,2F6W,2F6Y,2F6Z,2F70,2F71,2FJN,2H4G,2H4K,2HB1,2HNP,2HNQ,2QBP,2QBQ,2QBR,2QBS,2VEU,2VEV,2VEW,2VEX,2VEY,2ZMM,2ZN7,3A5J,3CWE,3D9C,3EAX,
3EB1,3EU0,3I7Z,3I80,3SME,4BJO,4I8N,4QBW,4Y14,5K9V,5K9W,5KA0,5KA1,5T19,6B90,6NTP,6W30,7KEY,7KLX,7LFO,7MN9,7MNA,8DU7,8G65,8G67,8G68,8G69,8G6A,8SKL

> <UniProt (SwissProt) Recommended Name of Target Chain>
Tyrosine-protein phosphatase non-receptor type 1

> <UniProt (SwissProt) Entry Name of Target Chain>
PTN1_HUMAN

> <UniProt (SwissProt) Primary ID of Target Chain>
P18031

> <UniProt (SwissProt) Secondary ID(s) of Target Chain>
Q5TGD8 Q9BQV9 Q9NQQ4

$$$$
Molecule
  SciTegic10242319433D

 86 91  0  0  0  0            999 V2000
    8.8537   -7.6865    0.1085 C   0  0
    8.9163   -4.6016    0.0954 C   0  0
   10.1775   -5.4106    0.5484 C   0  0  1  0  0  0
   10.1254   -6.7674   -0.2545 C   0  0  1  0  0  0
   11.4363   -7.6060   -0.0642 C   0  0
   12.6572   -6.7841   -0.6080 C   0  0
   11.4854   -4.6397    0.0708 C   0  0  2  0  0  0
   12.8466   -5.4709    0.1825 C   0  0  2  0  0  0
   13.0116   -2.6387    0.7637 C   0  0
   11.6364   -3.3202    0.8908 C   0  0
   14.0905   -3.2097    0.1978 C   0  0
   13.9909   -4.5931   -0.4988 C   0  0  1  0  0  0
   15.3428   -5.3277   -0.5315 C   0  0
   16.4829   -4.4009   -1.0673 C   0  0
   15.3824   -2.3831    0.1554 C   0  0  1  0  0  0
   16.7388   -3.2727   -0.0109 C   0  0  2  0  0  0
   17.9224   -2.3583   -0.5577 C   0  0
   17.7668   -1.0345    0.0697 C   0  0
   16.5563   -0.3677   -0.7105 C   0  0
   15.3940   -1.4492   -1.0265 C   0  0
   16.0515    0.7893    0.1916 C   0  0
   16.9968    0.2276   -2.0579 C   0  0
   17.1242   -3.8866    1.3668 C   0  0
   16.5321   -4.8425    1.8786 O   0  0
   18.2150   -3.3579    2.0514 O   0  0
   13.3109   -5.8278    1.6437 C   0  0
   10.1639   -5.5575    2.1123 C   0  0
   13.6655   -4.3315   -2.0108 C   0  0
    8.8331   -8.8584   -0.8977 C   0  0
    8.8651   -8.3845    1.5128 C   0  0
    7.5931   -6.7917    0.0550 C   0  0
    7.6458   -5.4697    0.0654 C   0  0
    6.2820   -4.9611   -0.0131 C   0  0
    5.4860   -5.9678   -0.0362 N   0  0
    6.1978   -7.1245    0.0345 N   0  0
    5.5896   -8.3226    0.1069 C   0  0
    4.0917   -8.3848    0.0839 C   0  0
    6.2244   -9.3778    0.2105 O   0  0
    9.0943   -4.2061   -0.9046 H   0  0
    8.7608   -3.7767    0.7906 H   0  0
   10.0522   -6.5156   -1.3125 H   0  0
   11.5825   -7.8185    0.9948 H   0  0
   11.3530   -8.5427   -0.6153 H   0  0
   13.5604   -7.3873   -0.5158 H   0  0
   12.4850   -6.5449   -1.6574 H   0  0
   11.3472   -4.3670   -0.9755 H   0  0
   13.1178   -1.6280    1.1577 H   0  0
   10.8765   -2.6182    0.5477 H   0  0
   11.4686   -3.5527    1.9424 H   0  0
   15.5946   -5.6520    0.4782 H   0  0
   15.2579   -6.1978   -1.1826 H   0  0
   17.3930   -4.9830   -1.2122 H   0  0
   16.1808   -3.9559   -2.0153 H   0  0
   15.4556   -1.7954    1.0705 H   0  0
   18.8856   -2.7905   -0.2862 H   0  0
   17.8564   -2.2690   -1.6420 H   0  0
   17.5335   -1.1352    1.1297 H   0  0
   18.6744   -0.4427   -0.0485 H   0  0
   15.6210   -1.9959   -1.9418 H   0  0
   14.4292   -0.9526   -1.1291 H   0  0
   15.2137    1.2900   -0.2936 H   0  0
   16.8583    1.5045    0.3517 H   0  0
   15.7272    0.3872    1.1515 H   0  0
   16.1366    0.6732   -2.5574 H   0  0
   17.4125   -0.5608   -2.6854 H   0  0
   17.7540    0.9929   -1.8874 H   0  0
   19.0795   -3.4582    1.4641 H   0  0
   12.5443   -6.4291    2.1324 H   0  0
   13.4677   -4.9098    2.2101 H   0  0
   14.2426   -6.3920    1.6019 H   0  0
    9.2623   -6.0870    2.4202 H   0  0
   10.1784   -4.5687    2.5707 H   0  0
   11.0416   -6.1189    2.4326 H   0  0
   14.4592   -3.7310   -2.4552 H   0  0
   12.7183   -3.7981   -2.0921 H   0  0
   13.5925   -5.2831   -2.5372 H   0  0
    9.7504   -9.4389   -0.7990 H   0  0
    8.7596   -8.4660   -1.9120 H   0  0
    7.9749   -9.4986   -0.6932 H   0  0
    9.7416   -9.0275    1.5923 H   0  0
    7.9629   -8.9851    1.6279 H   0  0
    8.8989   -7.6266    2.2955 H   0  0
    5.9898   -3.9115   -0.0463 H   0  0
    3.7697   -9.4239    0.1504 H   0  0
    3.7237   -7.9497   -0.8453 H   0  0
    3.6913   -7.8260    0.9298 H   0  0
 15 20  1  0
 16 17  1  0
 17 18  1  0
 18 19  1  0
 19 20  1  0
 32  2  1  0
 19 21  1  0
  7 10  1  0
 19 22  1  0
  8 12  1  0
 16 23  1  0
 11  9  2  0
 23 24  2  0
  9 10  1  0
 23 25  1  0
 12 11  1  0
  8 26  1  0
 31  1  1  0
  3 27  1  0
  4  1  1  0
  3  7  1  0
  4  5  1  0
 15 11  1  0
 12 28  1  0
 12 13  1  0
  1 29  1  0
 13 14  1  0
  1 30  1  0
 31 32  2  0
 16 14  1  0
 15 16  1  0
  5  6  1  0
  8  6  1  0
  7  8  1  0
 32 33  1  0
 33 34  2  0
 34 35  1  0
 35 31  1  0
  3  2  1  0
 35 36  1  0
  3  4  1  0
 36 37  1  0
 36 38  2  0
  2 39  1  0
  2 40  1  0
  4 41  1  0
  5 42  1  0
  5 43  1  0
  6 44  1  0
  6 45  1  0
  7 46  1  0
  9 47  1  0
 10 48  1  0
 10 49  1  0
 13 50  1  0
 13 51  1  0
 14 52  1  0
 14 53  1  0
 15 54  1  0
 17 55  1  0
 17 56  1  0
 18 57  1  0
 18 58  1  0
 20 59  1  0
 20 60  1  0
 21 61  1  0
 21 62  1  0
 21 63  1  0
 22 64  1  0
 22 65  1  0
 22 66  1  0
 25 67  1  0
 26 68  1  0
 26 69  1  0
 26 70  1  0
 27 71  1  0
 27 72  1  0
 27 73  1  0
 28 74  1  0
 28 75  1  0
 28 76  1  0
 29 77  1  0
 29 78  1  0
 29 79  1  0
 30 80  1  0
 30 81  1  0
 30 82  1  0
 33 83  1  0
 37 84  1  0
 37 85  1  0
 37 86  1  0
M  END
> <Name>
Molecule

> <Clean Energy>
144.67

> <From>
www.bindingDB.org

> <BindingDB Reactant_set_id>
50533709

> <Ligand InChI>
InChI=1S/C33H48N2O3/c1-20(36)35-26-21(19-34-35)17-30(6)24(29(26,4)5)11-12-32(8)25(30)10-9-22-23-18-28(2,3)13-15-33(23,27(37)38)16-14-31(22,32)7/h9,19,23-25H,10-18H2,1-8H3,(H,37,38)/t23-,24-,25+,30-,31
+,32+,33-/m0/s1

> <Ligand InChI Key>
UJQJVNWXOPWOGS-CEJXBKOESA-N

> <BindingDB MonomerID>
50299746

> <BindingDB Ligand Name>
(4aS,6aS,6bR,8aR,13aR,13bR,15bS)-10-acetyl-2,2,6a,6b,9,9,13a-heptamethyl-2,3,4,4a,5,6,6a,6b,7,8,8a,9,10,13,13a,13b,14,15b-octadecahydro-1H-chryseno[1,2-f]indazole-4a-carboxylic acid::CHEMBL574276

> <Target Name>
Tyrosine-protein phosphatase non-receptor type 1

> <Target Source Organism According to Curator or DataSource>
Homo sapiens

> <IC50 (nM)>
1480

> <Curation/DataSource>
ChEMBL

> <Article DOI>
10.1016/j.bmcl.2009.10.017

> <BindingDB Entry DOI>
10.7270/Q2BR8S8F

> <PMID>
19846303

> <Authors>
Qiu, WW; Shen, Q; Yang, F; Wang, B; Zou, H; Li, JY; Li, J; Tang, J

> <Institution>
East China Normal University

> <Link to Ligand in BindingDB>
http://www.bindingdb.org/bind/chemsearch/marvin/MolStructure.jsp?monomerid=50299746

> <Link to Ligand-Target Pair in BindingDB>
http://www.bindingdb.org/jsp/dbsearch/PrimarySearch_ki.jsp?energyterm=kJ/mole&tag=pol&polymerid=2622&target=Tyrosine-protein+phosphatase+non-receptor+type+1&column=ki&startPg=0&Increment=50&submit=Sea
rch
http://www.bindingdb.org/jsp/dbsearch/PrimarySearch_ki.jsp?energyterm=kJ/mole&tag=r21&monomerid=50299746&enzyme=Tyrosine-protein+phosphatase+non-receptor+type+1&column=ki&startPg=0&Increment=50&submit
=Search

> <PubChem CID of Ligand>
45482896

> <PubChem SID of Ligand>
104141275

> <ChEMBL ID of Ligand>
CHEMBL574276

> <ZINC ID of Ligand>
ZINC49708621

> <Number of Protein Chains in Target (bigger than 1 implies a multichain complex)>
1

> <BindingDB Target Chain Sequence>
MEMEKEFEQIDKSGSWAAIYQDIRHEASDFPCRVAKLPKNKNRNRYRDVSPFDHSRIKLHQEDNDYINASLIKMEEAQRSYILTQGPLPNTCGHFWEMVWEQKSRGVVMLNRVMEKGSLKCAQYWPQKEEKEMIFEDTNLKLTLISEDIKSYYTVRQLELENLTTQETREILHFHYTTWPDFGVPESPASFLNFLFKVRE
SGSLSPEHGPVVVHCSAGIGRSGTFCLADTCLLLMDKRKDPSSVDIKKVLLEMRKFRMGLIQTADQLRFSYLAVIEGAKFIMGDSSVQDQWKELSHEDLEPPPEHIPPPPRPPKRILEPHNGKCREFFPNHQWVKEETQEDKDCPIKEEKGSPLNAAPYGIESMSQDTEVRSRVVGGSLRGAQAASPAKGEPSLPEKDED
HALSYWKPFLVNMCVATVLTAGAYLCYRFLFNSNT

> <PDB ID(s) of Target Chain>
1BZJ,1G7G,1GFY,1JF7,1KAK,1KAV,1LQF,1NL9,1NNY,1NO6,1NZ7,1OEM,1OEO,1OES,1OET,1OEU,1OEV,1ONY,1ONZ,1PH0,1PXH,1PYN,1Q1M,1Q6J,1Q6M,1Q6N,1Q6P,1Q6S,1Q6T,1QXK,1SUG,1T48,1T49,1T4J,1WAX,1XBO,2AZR,2B07,2BGD,2BGE,
2CM2,2CM3,2CM7,2CM8,2CMA,2CMB,2CMC,2CNE,2CNF,2CNG,2CNH,2CNI,2F6T,2F6V,2F6W,2F6Y,2F6Z,2F70,2F71,2FJN,2H4G,2H4K,2HB1,2HNP,2HNQ,2QBP,2QBQ,2QBR,2QBS,2VEU,2VEV,2VEW,2VEX,2VEY,2ZMM,2ZN7,3A5J,3CWE,3D9C,3EAX,
3EB1,3EU0,3I7Z,3I80,3SME,4BJO,4I8N,4QBW,4Y14,5K9V,5K9W,5KA0,5KA1,5T19,6B90,6NTP,6W30,7KEY,7KLX,7LFO,7MN9,7MNA,8DU7,8G65,8G67,8G68,8G69,8G6A,8SKL

> <UniProt (SwissProt) Recommended Name of Target Chain>
Tyrosine-protein phosphatase non-receptor type 1

> <UniProt (SwissProt) Entry Name of Target Chain>
PTN1_HUMAN

> <UniProt (SwissProt) Primary ID of Target Chain>
P18031

> <UniProt (SwissProt) Secondary ID(s) of Target Chain>
Q5TGD8 Q9BQV9 Q9NQQ4

$$$$
Molecule
  SciTegic10242319433D

 60 63  0  0  0  0            999 V2000
    0.6906   -1.0309   -0.0245 C   0  0
   -0.4546   -1.8344   -0.0143 C   0  0
    0.4941    0.4974   -0.0336 C   0  0
   -1.8537   -1.0763   -0.0059 C   0  0
   -0.7633    1.1201   -0.0157 C   0  0
   -1.9199    0.3768   -0.0038 C   0  0
    2.1853   -1.6808   -0.0302 C   0  0
    9.6874    0.9905    0.1261 C   0  0
   -0.4415   -3.5016   -0.0096 C   0  0
    1.4236    1.2855   -0.0715 O   0  0
   -0.8297    2.3527   -0.0181 O   0  0
   11.0726    0.6028   -0.0962 O   0  0
    9.4514    2.2020    0.1962 O   0  0
   11.5071   -0.8068   -0.2105 C   0  0
    7.3575    0.9012    0.2410 O   0  0
    3.5875   -0.9634    0.0481 C   0  0
    8.4888    0.0580    0.2403 C   0  0
    6.1419    0.2307    0.1869 C   0  0
   -3.0302   -1.7127    0.0029 C   0  0
   -3.0786    1.0335    0.0064 C   0  0
    4.6878   -1.7256    0.0822 C   0  0
    3.7706    0.4654    0.0873 C   0  0
    4.9611    1.0319    0.1526 C   0  0
    6.0363   -1.1004    0.1533 C   0  0
    0.6717   -4.2475   -0.0115 C   0  0
   -1.7086   -4.2965   -0.0050 C   0  0
   11.2991   -1.5964    1.1098 C   0  0
   10.8699   -1.5543   -1.4171 C   0  0
   13.0213   -0.7672   -0.4742 C   0  0
   -4.3083   -1.0060    0.0137 C   0  0
   -4.3297    0.3178    0.0159 C   0  0
    0.6538   -5.7155   -0.0086 C   0  0
   -1.7315   -5.6271   -0.0027 C   0  0
   -0.4974   -6.3737   -0.0044 C   0  0
    2.1848   -2.3644    0.8188 H   0  0
    2.2267   -2.2523   -0.9575 H   0  0
    8.4548   -0.6250   -0.6085 H   0  0
    8.5381   -0.5147    1.1664 H   0  0
   -3.0353   -2.8027    0.0021 H   0  0
   -3.0808    2.1235    0.0074 H   0  0
    4.5951   -2.8113    0.0577 H   0  0
    2.8887    1.1054    0.0620 H   0  0
    5.0430    2.1185    0.1805 H   0  0
    6.9303   -1.7235    0.1778 H   0  0
    1.6365   -3.7402   -0.0154 H   0  0
   -2.6578   -3.7608   -0.0035 H   0  0
   11.6330   -2.6251    0.9750 H   0  0
   10.2418   -1.5899    1.3750 H   0  0
   11.8763   -1.1293    1.9078 H   0  0
   11.2319   -2.5821   -1.4407 H   0  0
   11.1460   -1.0510   -2.3438 H   0  0
    9.7848   -1.5541   -1.3134 H   0  0
   13.4009   -1.7846   -0.5682 H   0  0
   13.5222   -0.2683    0.3555 H   0  0
   13.2157   -0.2207   -1.3971 H   0  0
   -5.2426   -1.5672    0.0198 H   0  0
   -5.2769    0.8571    0.0249 H   0  0
    1.5932   -6.2682   -0.0098 H   0  0
   -2.6856   -6.1542    0.0005 H   0  0
   -0.5109   -7.4637   -0.0024 H   0  0
  2  1  2  0
  3  1  1  0
  4  2  1  0
  5  3  1  0
  6  5  1  0
  7  1  1  0
  8 17  1  0
  9  2  1  0
 10  3  2  0
 11  5  2  0
 12  8  1  0
 13  8  2  0
 14 12  1  0
 15 18  1  0
 16  7  1  0
 17 15  1  0
 18 23  1  0
 19  4  2  0
 20  6  2  0
 21 16  2  0
 22 16  1  0
 23 22  2  0
 24 21  1  0
 25  9  2  0
 26  9  1  0
 27 14  1  0
 28 14  1  0
 29 14  1  0
 30 19  1  0
 31 20  1  0
 32 25  1  0
 33 26  2  0
 34 33  1  0
  6  4  1  0
 24 18  2  0
 30 31  2  0
 34 32  2  0
  7 35  1  0
  7 36  1  0
 17 37  1  0
 17 38  1  0
 19 39  1  0
 20 40  1  0
 21 41  1  0
 22 42  1  0
 23 43  1  0
 24 44  1  0
 25 45  1  0
 26 46  1  0
 27 47  1  0
 27 48  1  0
 27 49  1  0
 28 50  1  0
 28 51  1  0
 28 52  1  0
 29 53  1  0
 29 54  1  0
 29 55  1  0
 30 56  1  0
 31 57  1  0
 32 58  1  0
 33 59  1  0
 34 60  1  0
M  END
> <Name>
Molecule

> <Clean Energy>
43.5663

> <From>
www.bindingDB.org

> <BindingDB Reactant_set_id>
50209386

> <Ligand InChI>
InChI=1S/C29H26O5/c1-29(2,3)34-25(30)18-33-21-15-13-19(14-16-21)17-24-26(20-9-5-4-6-10-20)22-11-7-8-12-23(22)27(31)28(24)32/h4-16H,17-18H2,1-3H3

> <Ligand InChI Key>
ZZVOLWIBVIYSBV-UHFFFAOYSA-N

> <BindingDB MonomerID>
50115735

> <BindingDB Ligand Name>
CHEMBL58354::[4-(3,4-Dioxo-1-phenyl-3,4-dihydro-naphthalen-2-ylmethyl)-phenoxy]-acetic acid tert-butyl ester

> <Target Name>
Tyrosine-protein phosphatase non-receptor type 1

> <Target Source Organism According to Curator or DataSource>
Homo sapiens

> <IC50 (nM)>
1480

> <Curation/DataSource>
ChEMBL

> <Article DOI>
10.1016/s0960-894x(02)00331-1

> <BindingDB Entry DOI>
10.7270/Q2QZ2999

> <PMID>
12113814

> <Authors>
Ahn, JH; Cho, SY; Ha, JD; Chu, SY; Jung, SH; Jung, YS; Baek, JY; Choi, IK; Shin, EY; Kang, SK; Kim, SS; Cheon, HG; Yang, SD; Choi, JK

> <Institution>
Korea Research Institute of Chemical Technology

> <Link to Ligand in BindingDB>
http://www.bindingdb.org/bind/chemsearch/marvin/MolStructure.jsp?monomerid=50115735

> <Link to Ligand-Target Pair in BindingDB>
http://www.bindingdb.org/jsp/dbsearch/PrimarySearch_ki.jsp?energyterm=kJ/mole&tag=pol&polymerid=2622&target=Tyrosine-protein+phosphatase+non-receptor+type+1&column=ki&startPg=0&Increment=50&submit=Sea
rch
http://www.bindingdb.org/jsp/dbsearch/PrimarySearch_ki.jsp?energyterm=kJ/mole&tag=r21&monomerid=50115735&enzyme=Tyrosine-protein+phosphatase+non-receptor+type+1&column=ki&startPg=0&Increment=50&submit
=Search

> <PubChem CID of Ligand>
10434105

> <PubChem SID of Ligand>
104009583

> <ChEMBL ID of Ligand>
CHEMBL58354

> <ZINC ID of Ligand>
ZINC13443972

> <Number of Protein Chains in Target (bigger than 1 implies a multichain complex)>
1

> <BindingDB Target Chain Sequence>
MEMEKEFEQIDKSGSWAAIYQDIRHEASDFPCRVAKLPKNKNRNRYRDVSPFDHSRIKLHQEDNDYINASLIKMEEAQRSYILTQGPLPNTCGHFWEMVWEQKSRGVVMLNRVMEKGSLKCAQYWPQKEEKEMIFEDTNLKLTLISEDIKSYYTVRQLELENLTTQETREILHFHYTTWPDFGVPESPASFLNFLFKVRE
SGSLSPEHGPVVVHCSAGIGRSGTFCLADTCLLLMDKRKDPSSVDIKKVLLEMRKFRMGLIQTADQLRFSYLAVIEGAKFIMGDSSVQDQWKELSHEDLEPPPEHIPPPPRPPKRILEPHNGKCREFFPNHQWVKEETQEDKDCPIKEEKGSPLNAAPYGIESMSQDTEVRSRVVGGSLRGAQAASPAKGEPSLPEKDED
HALSYWKPFLVNMCVATVLTAGAYLCYRFLFNSNT

> <PDB ID(s) of Target Chain>
1BZJ,1G7G,1GFY,1JF7,1KAK,1KAV,1LQF,1NL9,1NNY,1NO6,1NZ7,1OEM,1OEO,1OES,1OET,1OEU,1OEV,1ONY,1ONZ,1PH0,1PXH,1PYN,1Q1M,1Q6J,1Q6M,1Q6N,1Q6P,1Q6S,1Q6T,1QXK,1SUG,1T48,1T49,1T4J,1WAX,1XBO,2AZR,2B07,2BGD,2BGE,
2CM2,2CM3,2CM7,2CM8,2CMA,2CMB,2CMC,2CNE,2CNF,2CNG,2CNH,2CNI,2F6T,2F6V,2F6W,2F6Y,2F6Z,2F70,2F71,2FJN,2H4G,2H4K,2HB1,2HNP,2HNQ,2QBP,2QBQ,2QBR,2QBS,2VEU,2VEV,2VEW,2VEX,2VEY,2ZMM,2ZN7,3A5J,3CWE,3D9C,3EAX,
3EB1,3EU0,3I7Z,3I80,3SME,4BJO,4I8N,4QBW,4Y14,5K9V,5K9W,5KA0,5KA1,5T19,6B90,6NTP,6W30,7KEY,7KLX,7LFO,7MN9,7MNA,8DU7,8G65,8G67,8G68,8G69,8G6A,8SKL

> <UniProt (SwissProt) Recommended Name of Target Chain>
Tyrosine-protein phosphatase non-receptor type 1

> <UniProt (SwissProt) Entry Name of Target Chain>
PTN1_HUMAN

> <UniProt (SwissProt) Primary ID of Target Chain>
P18031

> <UniProt (SwissProt) Secondary ID(s) of Target Chain>
Q5TGD8 Q9BQV9 Q9NQQ4

$$$$
Molecule
  SciTegic10242319433D

105108  0  0  0  0            999 V2000
    3.9990    2.8292   -0.0295 C   0  0
    3.0804    2.0680    0.8882 C   0  0  2  0  0  0
    3.4189    0.5264    0.8791 C   0  0  2  0  0  0
    4.2938    0.1340   -0.4118 C   0  0  2  0  0  0
    5.6359    1.0832   -0.3980 C   0  0  1  0  0  0
    5.1229    2.4316   -0.5997 C   0  0
    2.1040   -0.1294    0.4811 C   0  0  1  0  0  0
    1.7737    1.0032   -0.6703 O   0  0
    1.7870    2.3376    0.0912 C   0  0  2  0  0  0
    3.3480    3.9735   -0.4759 C   0  0
    2.0137    3.6672   -0.4856 O   0  0
    3.8612    4.8290   -1.2080 O   0  0
    0.4606    2.5095    0.9036 C   0  0
    3.6545   -1.2931   -0.5538 C   0  0
    4.0957   -2.2648   -1.1812 O   0  0
    2.4452   -1.3453   -0.0306 O   0  0
    5.4489   -1.0508   -0.0888 C   0  0
    6.5644    1.0489    0.8956 C   0  0
    7.8147    1.8551    0.5428 C   0  0
    9.0059    1.2599    1.3093 C   0  0
   10.2907    1.6725    0.5720 C   0  0
   11.5263    1.0218    1.2179 C   0  0
   12.7602    1.3798    0.3665 C   0  0
   14.0405    0.8470    1.0301 C   0  0
   15.2544    1.2545    0.1736 C   0  0
   16.5513    0.8694    0.9043 C   0  0
   17.7632    1.3291    0.0745 C   0  0
   19.0564    1.0312    0.8537 C   0  0
   20.2713    1.5000    0.0325 C   0  0
    6.5210   -1.4445   -0.8734 C   0  0
    7.5976   -2.4396   -0.3687 C   0  0
    9.0039   -2.0705   -1.0280 C   0  0
   10.2410   -2.8104   -0.3556 C   0  0
   11.6133   -2.3773   -1.0398 C   0  0
   12.8847   -2.9725   -0.2962 C   0  0
   14.2334   -2.5385   -1.0094 C   0  0
   15.5073   -3.0187   -0.2069 C   0  0
   16.8383   -2.5630   -0.9161 C   0  0
   18.0925   -2.9281   -0.0483 C   0  0
   19.4058   -2.4205   -0.7244 C   0  0
   20.6275   -2.6974    0.1973 C   0  0
   21.9230   -2.1466   -0.4466 C   0  0
    1.0924   -0.3707    1.6595 C   0  0
    3.0496    2.4862    1.8943 H   0  0
    3.8293    0.1585    1.8195 H   0  0
    6.2469    0.8198   -1.2614 H   0  0
    5.6763    3.1254   -1.2326 H   0  0
   -0.3655    2.6931    0.2167 H   0  0
    0.5590    3.3534    1.5864 H   0  0
    0.2632    1.6020    1.4742 H   0  0
    5.3380   -1.5752    0.8603 H   0  0
    6.0493    1.5017    1.7427 H   0  0
    6.8338    0.0215    1.1404 H   0  0
    8.0004    1.7963   -0.5297 H   0  0
    7.6747    2.8969    0.8311 H   0  0
    9.0222    1.6470    2.3281 H   0  0
    8.9253    0.1732    1.3342 H   0  0
   10.2229    1.3549   -0.4684 H   0  0
   10.3946    2.7567    0.6154 H   0  0
   11.6552    1.4010    2.2317 H   0  0
   11.4001   -0.0604    1.2475 H   0  0
   12.6559    0.9338   -0.6226 H   0  0
   12.8291    2.4634    0.2715 H   0  0
   14.1386    1.2721    2.0289 H   0  0
   13.9909   -0.2396    1.1003 H   0  0
   15.2114    0.7386   -0.7857 H   0  0
   15.2369    2.3317    0.0085 H   0  0
   16.5753    1.3530    1.8809 H   0  0
   16.5884   -0.2123    1.0330 H   0  0
   17.7786    0.7933   -0.8746 H   0  0
   17.6902    2.4003   -0.1136 H   0  0
   19.0362    1.5605    1.8064 H   0  0
   19.1324   -0.0409    1.0346 H   0  0
   21.1870    1.2888    0.5847 H   0  0
   20.1961    2.5721   -0.1489 H   0  0
   20.2922    0.9712   -0.9205 H   0  0
    6.6107   -1.0401   -1.8816 H   0  0
    7.6753   -2.3730    0.7165 H   0  0
    7.3175   -3.4542   -0.6518 H   0  0
    8.9714   -2.3442   -2.0826 H   0  0
    9.1550   -0.9950   -0.9357 H   0  0
   10.2755   -2.5543    0.7033 H   0  0
   10.1135   -3.8873   -0.4655 H   0  0
   11.6155   -2.7309   -2.0708 H   0  0
   11.6804   -1.2894   -1.0281 H   0  0
   12.8954   -2.6097    0.7316 H   0  0
   12.8181   -4.0604   -0.2973 H   0  0
   14.2605   -2.9761   -2.0074 H   0  0
   14.2561   -1.4516   -1.0881 H   0  0
   15.4760   -2.5928    0.7959 H   0  0
   15.4953   -4.1067   -0.1407 H   0  0
   16.9161   -3.0621   -1.8820 H   0  0
   16.8106   -1.4836   -1.0655 H   0  0
   17.9943   -2.4641    0.9332 H   0  0
   18.1450   -4.0109    0.0647 H   0  0
   19.5459   -2.9392   -1.6728 H   0  0
   19.3266   -1.3484   -0.9044 H   0  0
   20.4693   -2.2103    1.1596 H   0  0
   20.7291   -3.7724    0.3460 H   0  0
   22.7695   -2.3477    0.2099 H   0  0
   21.8266   -1.0710   -0.5952 H   0  0
   22.0863   -2.6326   -1.4085 H   0  0
    0.1887   -0.8415    1.2726 H   0  0
    0.8358    0.5835    2.1198 H   0  0
    1.5502   -1.0216    2.4045 H   0  0
  2  1  1  0
  3  4  1  0
  4  5  1  0
  5  6  1  0
  1  6  2  0
  2  9  1  0
  3  2  1  0
  3  7  1  0
  7  8  1  0
  9  8  1  0
  1 10  1  0
 10 11  1  0
  9 11  1  0
 10 12  2  0
  9 13  1  0
  4 14  1  0
 14 15  2  0
 14 16  1  0
  7 16  1  0
  4 17  1  0
  5 18  1  0
 18 19  1  0
 19 20  1  0
 20 21  1  0
 21 22  1  0
 22 23  1  0
 23 24  1  0
 24 25  1  0
 25 26  1  0
 26 27  1  0
 27 28  1  0
 28 29  1  0
 17 30  2  0
 30 31  1  0
 31 32  1  0
 32 33  1  0
 33 34  1  0
 34 35  1  0
 35 36  1  0
 36 37  1  0
 37 38  1  0
 38 39  1  0
 39 40  1  0
 40 41  1  0
 41 42  1  0
  7 43  1  0
  2 44  1  0
  3 45  1  0
  5 46  1  0
  6 47  1  0
 13 48  1  0
 13 49  1  0
 13 50  1  0
 17 51  1  0
 18 52  1  0
 18 53  1  0
 19 54  1  0
 19 55  1  0
 20 56  1  0
 20 57  1  0
 21 58  1  0
 21 59  1  0
 22 60  1  0
 22 61  1  0
 23 62  1  0
 23 63  1  0
 24 64  1  0
 24 65  1  0
 25 66  1  0
 25 67  1  0
 26 68  1  0
 26 69  1  0
 27 70  1  0
 27 71  1  0
 28 72  1  0
 28 73  1  0
 29 74  1  0
 29 75  1  0
 29 76  1  0
 30 77  1  0
 31 78  1  0
 31 79  1  0
 32 80  1  0
 32 81  1  0
 33 82  1  0
 33 83  1  0
 34 84  1  0
 34 85  1  0
 35 86  1  0
 35 87  1  0
 36 88  1  0
 36 89  1  0
 37 90  1  0
 37 91  1  0
 38 92  1  0
 38 93  1  0
 39 94  1  0
 39 95  1  0
 40 96  1  0
 40 97  1  0
 41 98  1  0
 41 99  1  0
 42100  1  0
 42101  1  0
 42102  1  0
 43103  1  0
 43104  1  0
 43105  1  0
M  END
> <Name>
Molecule

> <Clean Energy>
322.915

> <From>
www.bindingDB.org

> <BindingDB Reactant_set_id>
253476

> <Ligand InChI>
InChI=1S/C38H62O5/c1-5-7-9-11-13-15-17-18-20-22-24-26-28-38-30(27-25-23-21-19-16-14-12-10-8-6-2)29-31-32-33(38)37(4,42-35(38)40)43-36(32,3)41-34(31)39/h26,28-30,32-33H,5-25,27H2,1-4H3/b28-26+/t30-,32-
,33+,36+,37-,38+/m1/s1

> <Ligand InChI Key>
ZAFZFHLQBNISDI-VUOKYHFVSA-N

> <BindingDB MonomerID>
124257

> <BindingDB Ligand Name>
Paracaseolide A (13)

> <Target Name>
Tyrosine-protein phosphatase non-receptor type 1

> <Target Source Organism According to Curator or DataSource>
Homo sapiens

> <IC50 (nM)>
1500

> <Curation/DataSource>
Curated from the literature by BindingDB

> <Article DOI>
10.1039/c4ob00214h

> <BindingDB Entry DOI>
10.7270/Q2JQ0ZPC

> <PMID>
24752625

> <Authors>
Yin, JP; Tang, CL; Gao, LX; Ma, WP; Li, JY; Li, Y; Li, J; Nan, FJ

> <Institution>
Lanzhou University

> <Link to Ligand in BindingDB>
http://www.bindingdb.org/bind/chemsearch/marvin/MolStructure.jsp?monomerid=124257

> <Link to Ligand-Target Pair in BindingDB>
http://www.bindingdb.org/jsp/dbsearch/PrimarySearch_ki.jsp?energyterm=kJ/mole&tag=pol&polymerid=2622&target=Tyrosine-protein+phosphatase+non-receptor+type+1&column=ki&startPg=0&Increment=50&submit=Sea
rch
http://www.bindingdb.org/jsp/dbsearch/PrimarySearch_ki.jsp?energyterm=kJ/mole&tag=r21&monomerid=124257&enzyme=Tyrosine-protein+phosphatase+non-receptor+type+1&column=ki&startPg=0&Increment=50&submit=S
earch

> <PubChem CID of Ligand>
56590481

> <PubChem SID of Ligand>
225150648

> <Number of Protein Chains in Target (bigger than 1 implies a multichain complex)>
1

> <BindingDB Target Chain Sequence>
MEMEKEFEQIDKSGSWAAIYQDIRHEASDFPCRVAKLPKNKNRNRYRDVSPFDHSRIKLHQEDNDYINASLIKMEEAQRSYILTQGPLPNTCGHFWEMVWEQKSRGVVMLNRVMEKGSLKCAQYWPQKEEKEMIFEDTNLKLTLISEDIKSYYTVRQLELENLTTQETREILHFHYTTWPDFGVPESPASFLNFLFKVRE
SGSLSPEHGPVVVHCSAGIGRSGTFCLADTCLLLMDKRKDPSSVDIKKVLLEMRKFRMGLIQTADQLRFSYLAVIEGAKFIMGDSSVQDQWKELSHEDLEPPPEHIPPPPRPPKRILEPHNGKCREFFPNHQWVKEETQEDKDCPIKEEKGSPLNAAPYGIESMSQDTEVRSRVVGGSLRGAQAASPAKGEPSLPEKDED
HALSYWKPFLVNMCVATVLTAGAYLCYRFLFNSNT

> <PDB ID(s) of Target Chain>
1BZJ,1G7G,1GFY,1JF7,1KAK,1KAV,1LQF,1NL9,1NNY,1NO6,1NZ7,1OEM,1OEO,1OES,1OET,1OEU,1OEV,1ONY,1ONZ,1PH0,1PXH,1PYN,1Q1M,1Q6J,1Q6M,1Q6N,1Q6P,1Q6S,1Q6T,1QXK,1SUG,1T48,1T49,1T4J,1WAX,1XBO,2AZR,2B07,2BGD,2BGE,
2CM2,2CM3,2CM7,2CM8,2CMA,2CMB,2CMC,2CNE,2CNF,2CNG,2CNH,2CNI,2F6T,2F6V,2F6W,2F6Y,2F6Z,2F70,2F71,2FJN,2H4G,2H4K,2HB1,2HNP,2HNQ,2QBP,2QBQ,2QBR,2QBS,2VEU,2VEV,2VEW,2VEX,2VEY,2ZMM,2ZN7,3A5J,3CWE,3D9C,3EAX,
3EB1,3EU0,3I7Z,3I80,3SME,4BJO,4I8N,4QBW,4Y14,5K9V,5K9W,5KA0,5KA1,5T19,6B90,6NTP,6W30,7KEY,7KLX,7LFO,7MN9,7MNA,8DU7,8G65,8G67,8G68,8G69,8G6A,8SKL

> <UniProt (SwissProt) Recommended Name of Target Chain>
Tyrosine-protein phosphatase non-receptor type 1

> <UniProt (SwissProt) Entry Name of Target Chain>
PTN1_HUMAN

> <UniProt (SwissProt) Primary ID of Target Chain>
P18031

> <UniProt (SwissProt) Secondary ID(s) of Target Chain>
Q5TGD8 Q9BQV9 Q9NQQ4

$$$$
Molecule
  SciTegic10242319433D

109113  0  0  0  0            999 V2000
    3.2960   -8.5007   -0.1748 C   0  0
   -4.4322    2.1106   -0.5226 C   0  0
   -6.4009    3.2860    0.0383 C   0  0
   -5.2920    4.1187    0.3151 C   0  0
   -4.1699    3.4745    0.0602 C   0  0
   -5.9746    2.1114   -0.3915 C   0  0
    6.2665    0.0035   -0.1709 C   0  0
    2.4909   -0.2431    0.2208 C   0  0
    4.7780   -8.7703    0.0817 C   0  0
    2.5601   -9.7345    0.2891 C   0  0
    3.7169   -0.0883   -0.3405 N   0  0
    7.4708   -0.5593    0.1204 N   0  0
   -1.4019    0.0617    0.3886 C   0  0
    4.9698   -0.8016    0.1501 C   0  0  1  0  0  0
    8.7996   -0.0023   -0.2703 C   0  0  2  0  0  0
    2.7536   -7.2942    0.5165 O   0  0
    9.8110   -1.0958    0.0988 C   0  0
    0.0546   -0.1399    0.4156 N   0  0
   -3.5556    0.9143   -0.0087 C   0  0
    1.2153    0.5295   -0.2772 C   0  0  1  0  0  0
    0.6342    4.5036   -0.1514 C   0  0
   -2.0995    1.0949   -0.2869 O   0  0
    3.0314   -8.4285   -1.5314 F   0  0
    6.2028    1.0769   -0.7793 O   0  0
    2.3608   -1.0199    1.1701 O   0  0
    5.2867   -2.1676   -0.5805 C   0  0
   -2.0805   -0.7244    1.0602 O   0  0
    5.4371   -8.0102    0.8005 O   0  0
    3.1957  -10.6915    0.7497 O   0  0
    9.6940   -2.2210   -0.3981 O   0  0
    9.1059    1.4293    0.3519 C   0  0
    1.6610    4.7751    0.4809 O   0  0
   -0.2665    5.5561   -0.5180 O   0  0
    1.4381    2.0752    0.0434 C   0  0
    3.3127   -5.9898    0.1706 C   0  0
   10.7673   -0.8954    1.1020 N   0  0
    0.3218    3.0333   -0.4975 C   0  0
    4.4739   -3.4525   -0.3327 C   0  0
    5.3894   -9.8880   -0.4772 O   0  0
    1.1781   -9.8127    0.1843 O   0  0
    0.2234    6.8412   -0.0297 C   0  0
    4.2255   -5.8284   -0.7890 C   0  0
    2.8940   -4.7965    0.9448 C   0  0
    4.8270   -4.5246   -1.0389 C   0  0
    3.4474   -3.5980    0.7102 C   0  0
   -5.3221    5.4413    0.8829 C   0  0
   -7.7963    3.5944    0.2487 C   0  0
   -6.9124    1.0413   -0.6764 C   0  0
   -2.9055    4.0521    0.3485 C   0  0
   -0.8127    7.9701   -0.1756 C   0  0
   10.3648    2.2217   -0.2708 C   0  0
   -0.6161    9.1257    0.4623 C   0  0
   -2.0355    7.7928   -0.9772 C   0  0
   11.7583    1.5532   -0.1720 C   0  0
   10.4669    3.6121    0.3824 C   0  0
   -2.8901    5.2660    0.8990 C   0  0
   -4.1501    6.0035    1.1699 C   0  0
   -8.6827    2.6307   -0.0046 C   0  0
   -8.2173    1.2909   -0.4878 C   0  0
   -2.9406    8.7715   -1.0522 C   0  0
   -1.6091   10.2078    0.3696 C   0  0
   -2.7188   10.0361   -0.3462 C   0  0
   -4.2234    2.1967   -1.5889 H   0  0
    3.8085    0.5735   -1.1763 H   0  0
    7.4649   -1.4749    0.6741 H   0  0
    4.8991   -0.9688    1.2249 H   0  0
    8.8074    0.1013   -1.3553 H   0  0
    0.3562   -0.9329    1.0677 H   0  0
   -3.6941    0.8202    1.0684 H   0  0
   -3.8922    0.0013   -0.4999 H   0  0
    1.1142    0.3977   -1.3545 H   0  0
    5.2096   -1.9633   -1.6484 H   0  0
    6.3193   -2.4110   -0.3303 H   0  0
    8.2204    2.0492    0.2115 H   0  0
    9.2913    1.2957    1.4177 H   0  0
    1.4877    2.1917    1.1260 H   0  0
    2.3870    2.3785   -0.3991 H   0  0
   10.8031    0.0352    1.6288 H   0  0
   11.4622   -1.6729    1.3416 H   0  0
   -0.6322    2.7572   -0.0483 H   0  0
    0.2577    2.9288   -1.5806 H   0  0
    4.9110  -10.7575   -0.1341 H   0  0
    0.7400   -9.0382    0.7418 H   0  0
    0.4795    6.7381    1.0248 H   0  0
    1.1148    7.1117   -0.5957 H   0  0
    4.5257   -6.6836   -1.3945 H   0  0
    2.1275   -4.8947    1.7136 H   0  0
    5.5810   -4.4252   -1.8197 H   0  0
    3.1363   -2.7310    1.2928 H   0  0
   -6.2628    5.9593    1.0695 H   0  0
   -8.1125    4.5764    0.6007 H   0  0
   -6.5691    0.0694   -1.0309 H   0  0
   -1.9794    3.5214    0.1274 H   0  0
   10.1562    2.3773   -1.3293 H   0  0
    0.2865    9.2691    1.0562 H   0  0
   -2.2024    6.8578   -1.5119 H   0  0
   12.5056    2.2000   -0.6315 H   0  0
   11.7396    0.5947   -0.6908 H   0  0
   12.0118    1.3936    0.8761 H   0  0
   11.3173    4.1496   -0.0371 H   0  0
   10.6035    3.4997    1.4579 H   0  0
    9.5523    4.1728    0.1893 H   0  0
   -1.9354    5.7255    1.1549 H   0  0
   -4.1154    7.0032    1.6029 H   0  0
   -9.7467    2.8179    0.1401 H   0  0
   -8.9488    0.5082   -0.6890 H   0  0
   -3.8471    8.6294   -1.6405 H   0  0
   -1.4360   11.1511    0.8877 H   0  0
   -3.4595   10.8335   -0.4066 H   0  0
  2 19  1  0
  3  6  2  0
  4  5  2  0
  5  2  1  0
  6  2  1  0
 14  7  1  0
  8 11  1  0
  9  1  1  0
 10  1  1  0
 14 11  1  0
 12  7  1  0
 13 18  1  0
 14 26  1  0
 15 12  1  0
 16  1  1  0
 15 17  1  0
 20 18  1  0
 19 22  1  0
 20  8  1  0
 21 37  1  0
 22 13  1  0
 23  1  1  0
 24  7  2  0
 25  8  2  0
 26 38  1  0
 27 13  2  0
 28  9  2  0
 29 10  2  0
 30 17  2  0
 15 31  1  0
 32 21  2  0
 33 21  1  0
 20 34  1  0
 35 16  1  0
 36 17  1  0
 37 34  1  0
 38 45  1  0
 39  9  1  0
 40 10  1  0
 41 33  1  0
 42 35  2  0
 43 35  1  0
 44 42  1  0
 45 43  2  0
 46  4  1  0
 47  3  1  0
 48  6  1  0
 49  5  1  0
 50 41  1  0
 51 31  1  0
 52 50  2  0
 53 50  1  0
 54 51  1  0
 55 51  1  0
 56 49  2  0
 57 56  1  0
 58 59  1  0
 59 48  2  0
 60 53  2  0
 61 52  1  0
 62 60  1  0
 38 44  2  0
  3  4  1  0
 62 61  2  0
 58 47  2  0
 46 57  2  0
  2 63  1  0
 11 64  1  0
 12 65  1  0
 14 66  1  0
 15 67  1  0
 18 68  1  0
 19 69  1  0
 19 70  1  0
 20 71  1  0
 26 72  1  0
 26 73  1  0
 31 74  1  0
 31 75  1  0
 34 76  1  0
 34 77  1  0
 36 78  1  0
 36 79  1  0
 37 80  1  0
 37 81  1  0
 39 82  1  0
 40 83  1  0
 41 84  1  0
 41 85  1  0
 42 86  1  0
 43 87  1  0
 44 88  1  0
 45 89  1  0
 46 90  1  0
 47 91  1  0
 48 92  1  0
 49 93  1  0
 51 94  1  0
 52 95  1  0
 53 96  1  0
 54 97  1  0
 54 98  1  0
 54 99  1  0
 55100  1  0
 55101  1  0
 55102  1  0
 56103  1  0
 57104  1  0
 58105  1  0
 59106  1  0
 60107  1  0
 61108  1  0
 62109  1  0
M  END
> <Name>
Molecule

> <Clean Energy>
131.429

> <From>
www.bindingDB.org

> <BindingDB Reactant_set_id>
50238641

> <Ligand InChI>
InChI=1S/C45H47FN4O12/c1-26(2)22-36(39(47)52)48-41(54)37(23-27-16-18-29(19-17-27)62-45(46,42(55)56)43(57)58)49-40(53)35(20-21-38(51)60-24-28-10-4-3-5-11-28)50-44(59)61-25-34-32-14-8-6-12-30(32)31-13-7
-9-15-33(31)34/h3-19,26,34-37H,20-25H2,1-2H3,(H2,47,52)(H,48,54)(H,49,53)(H,50,59)(H,55,56)(H,57,58)/t35-,36-,37-/m0/s1

> <Ligand InChI Key>
UMZCEHLFSSRZFD-FSEITFBQSA-N

> <BindingDB MonomerID>
50131100

> <BindingDB Ligand Name>
2-{4-[(S)-2-[(S)-4-Benzyloxycarbonyl-2-(9H-fluoren-9-ylmethoxycarbonylamino)-butyrylamino]-2-((S)-1-carbamoyl-3-methyl-butylcarbamoyl)-ethyl]-phenoxy}-2-fluoro-malonic acid::CHEMBL312922

> <Target Name>
Tyrosine-protein phosphatase non-receptor type 1

> <Target Source Organism According to Curator or DataSource>
Homo sapiens

> <IC50 (nM)>
1500

> <Curation/DataSource>
ChEMBL

> <Article DOI>
10.1016/s0960-894x(03)00481-5

> <BindingDB Entry DOI>
10.7270/Q2QC02VZ

> <PMID>
12852970

> <Authors>
Lee, K; Gao, Y; Yao, ZJ; Phan, J; Wu, L; Liang, J; Waugh, DS; Zhang, ZY; Burke, TR

> <Institution>
National Cancer Institute-Frederick

> <Link to Ligand in BindingDB>
http://www.bindingdb.org/bind/chemsearch/marvin/MolStructure.jsp?monomerid=50131100

> <Link to Ligand-Target Pair in BindingDB>
http://www.bindingdb.org/jsp/dbsearch/PrimarySearch_ki.jsp?energyterm=kJ/mole&tag=pol&polymerid=2622&target=Tyrosine-protein+phosphatase+non-receptor+type+1&column=ki&startPg=0&Increment=50&submit=Sea
rch
http://www.bindingdb.org/jsp/dbsearch/PrimarySearch_ki.jsp?energyterm=kJ/mole&tag=r21&monomerid=50131100&enzyme=Tyrosine-protein+phosphatase+non-receptor+type+1&column=ki&startPg=0&Increment=50&submit
=Search

> <PubChem CID of Ligand>
44320599

> <PubChem SID of Ligand>
104022332

> <ChEMBL ID of Ligand>
CHEMBL312922

> <Number of Protein Chains in Target (bigger than 1 implies a multichain complex)>
1

> <BindingDB Target Chain Sequence>
MEMEKEFEQIDKSGSWAAIYQDIRHEASDFPCRVAKLPKNKNRNRYRDVSPFDHSRIKLHQEDNDYINASLIKMEEAQRSYILTQGPLPNTCGHFWEMVWEQKSRGVVMLNRVMEKGSLKCAQYWPQKEEKEMIFEDTNLKLTLISEDIKSYYTVRQLELENLTTQETREILHFHYTTWPDFGVPESPASFLNFLFKVRE
SGSLSPEHGPVVVHCSAGIGRSGTFCLADTCLLLMDKRKDPSSVDIKKVLLEMRKFRMGLIQTADQLRFSYLAVIEGAKFIMGDSSVQDQWKELSHEDLEPPPEHIPPPPRPPKRILEPHNGKCREFFPNHQWVKEETQEDKDCPIKEEKGSPLNAAPYGIESMSQDTEVRSRVVGGSLRGAQAASPAKGEPSLPEKDED
HALSYWKPFLVNMCVATVLTAGAYLCYRFLFNSNT

> <PDB ID(s) of Target Chain>
1BZJ,1G7G,1GFY,1JF7,1KAK,1KAV,1LQF,1NL9,1NNY,1NO6,1NZ7,1OEM,1OEO,1OES,1OET,1OEU,1OEV,1ONY,1ONZ,1PH0,1PXH,1PYN,1Q1M,1Q6J,1Q6M,1Q6N,1Q6P,1Q6S,1Q6T,1QXK,1SUG,1T48,1T49,1T4J,1WAX,1XBO,2AZR,2B07,2BGD,2BGE,
2CM2,2CM3,2CM7,2CM8,2CMA,2CMB,2CMC,2CNE,2CNF,2CNG,2CNH,2CNI,2F6T,2F6V,2F6W,2F6Y,2F6Z,2F70,2F71,2FJN,2H4G,2H4K,2HB1,2HNP,2HNQ,2QBP,2QBQ,2QBR,2QBS,2VEU,2VEV,2VEW,2VEX,2VEY,2ZMM,2ZN7,3A5J,3CWE,3D9C,3EAX,
3EB1,3EU0,3I7Z,3I80,3SME,4BJO,4I8N,4QBW,4Y14,5K9V,5K9W,5KA0,5KA1,5T19,6B90,6NTP,6W30,7KEY,7KLX,7LFO,7MN9,7MNA,8DU7,8G65,8G67,8G68,8G69,8G6A,8SKL

> <UniProt (SwissProt) Recommended Name of Target Chain>
Tyrosine-protein phosphatase non-receptor type 1

> <UniProt (SwissProt) Entry Name of Target Chain>
PTN1_HUMAN

> <UniProt (SwissProt) Primary ID of Target Chain>
P18031

> <UniProt (SwissProt) Secondary ID(s) of Target Chain>
Q5TGD8 Q9BQV9 Q9NQQ4

$$$$
Molecule
  SciTegic10242319433D

 75 79  0  0  0  0            999 V2000
    7.2861   -4.5909    0.0006 C   0  0
    8.0337   -5.8693    0.0011 C   0  0
    9.3737   -5.8673    0.0014 C   0  0
   10.1147   -4.5833    0.0015 C   0  0
    9.4294   -3.4412    0.0010 C   0  0
    7.9642   -3.4455    0.0007 C   0  0
    5.7936   -4.5237    0.0002 C   0  0
    5.2560   -3.4103   -0.0003 O   0  0
    4.9240   -5.7210    0.0003 C   0  0
    3.5391   -5.5530   -0.0002 O   0  0
    5.3955   -6.8625    0.0007 O   0  0
   11.5428   -4.5239    0.0016 O   0  0
   12.1703   -5.8208   -0.0007 C   0  0
   13.7088   -5.6877    0.0125 C   0  0
   14.5402   -6.7582   -0.0190 C   0  0
   15.9276   -6.4584    0.0058 C   0  0
   16.5086   -5.2804   -0.0088 C   0  0
   15.6542   -4.1058    0.0038 C   0  0
   14.3204   -4.2963   -0.0052 C   0  0
   18.0784   -5.3023   -0.0051 C   0  0
   18.7774   -4.0488   -0.0021 O   0  0
   20.2285   -4.2409   -0.0015 C   0  0
   20.8717   -5.5959   -0.0025 C   0  0
   22.2124   -5.7148   -0.0018 C   0  0
   23.0703   -4.5005    0.0000 C   0  0
   22.4850   -3.3039    0.0008 C   0  0
   21.0180   -3.1681    0.0002 C   0  0
   24.5776   -4.5426    0.0007 C   0  0
   25.3746   -5.7929    0.0002 C   0  0
   25.1902   -3.4684    0.0016 O   0  0
   24.8356   -6.9037   -0.0005 O   0  0
   26.7714   -5.7072    0.0008 O   0  0
   14.0573   -8.2934    0.0046 C   0  0
   12.8402   -8.5057   -0.0032 O   0  0
   14.8125   -9.4796   -0.0042 N   0  0
   16.2704   -9.8419    0.0029 C   0  0
   16.6540  -11.1236   -0.0069 C   0  0
   18.1246  -11.4603   -0.0047 C   0  0
   19.0412  -10.4757    0.0033 C   0  0
   18.5883   -9.1567    0.0126 C   0  0
   17.3077   -8.8854    0.0107 C   0  0
   20.4716  -10.5745    0.0062 O   0  0
   21.2243  -11.7665    0.0021 C   0  0
   20.7121  -12.9968   -0.0021 C   0  0
   21.5940  -14.1590   -0.0050 C   0  0
   22.9153  -13.9960   -0.0034 C   0  0
   23.4843  -12.6544    0.0011 C   0  0
   22.6797  -11.5981    0.0038 C   0  0
    7.4920   -6.8152    0.0012 H   0  0
    9.9195   -6.8108    0.0017 H   0  0
    9.9650   -2.4919    0.0007 H   0  0
    7.4230   -2.4994    0.0005 H   0  0
    3.2505   -5.0193    0.8569 H   0  0
   11.8522   -6.3727    0.8838 H   0  0
   11.8667   -6.3626   -0.8964 H   0  0
   16.5978   -7.3173    0.0415 H   0  0
   16.0787   -3.1020    0.0201 H   0  0
   13.6615   -3.4282   -0.0259 H   0  0
   18.3911   -5.8479    0.8852 H   0  0
   18.3953   -5.8460   -0.8951 H   0  0
   20.2490   -6.4906   -0.0037 H   0  0
   22.6704   -6.7039   -0.0025 H   0  0
   23.1041   -2.4068    0.0021 H   0  0
   20.5715   -2.1738    0.0011 H   0  0
   27.0912   -5.1913   -0.8560 H   0  0
   14.1877  -10.3481   -0.0201 H   0  0
   15.9091  -11.9192   -0.0164 H   0  0
   18.4447  -12.5022   -0.0097 H   0  0
   19.3106   -8.3405    0.0216 H   0  0
   17.0190   -7.8344    0.0155 H   0  0
   19.6309  -13.1351   -0.0033 H   0  0
   21.1701  -15.1632   -0.0086 H   0  0
   23.5717  -14.8662   -0.0055 H   0  0
   24.5658  -12.5186    0.0023 H   0  0
   23.1065  -10.5951    0.0073 H   0  0
  5  6  1  0
 23 24  2  0
  4 12  1  0
 24 25  1  0
  6  1  2  0
 25 26  2  0
 12 13  1  0
 26 27  1  0
 27 22  2  0
  1  2  1  0
 25 28  1  0
 13 14  1  0
 28 29  1  0
  1  7  1  0
 28 30  2  0
 14 15  2  0
 29 31  2  0
  3  4  1  0
 29 32  1  0
 15 16  1  0
 15 33  1  0
  7  8  2  0
 33 34  2  0
 16 17  2  0
 33 35  1  0
 35 36  1  0
 17 18  1  0
 36 37  2  0
  7  9  1  0
 37 38  1  0
 18 19  2  0
 38 39  2  0
 19 14  1  0
 39 40  1  0
  4  5  2  0
 40 41  2  0
 41 36  1  0
 17 20  1  0
 39 42  1  0
  9 10  1  0
 42 43  1  0
 20 21  1  0
 43 44  2  0
  2  3  2  0
 44 45  1  0
 21 22  1  0
 45 46  2  0
  9 11  2  0
 46 47  1  0
 22 23  1  0
 47 48  2  0
 48 43  1  0
  2 49  1  0
  3 50  1  0
  5 51  1  0
  6 52  1  0
 10 53  1  0
 13 54  1  0
 13 55  1  0
 16 56  1  0
 18 57  1  0
 19 58  1  0
 20 59  1  0
 20 60  1  0
 23 61  1  0
 24 62  1  0
 26 63  1  0
 27 64  1  0
 32 65  1  0
 35 66  1  0
 37 67  1  0
 38 68  1  0
 40 69  1  0
 41 70  1  0
 44 71  1  0
 45 72  1  0
 46 73  1  0
 47 74  1  0
 48 75  1  0
M  END
> <Name>
Molecule

> <Clean Energy>
40.5631

> <From>
www.bindingDB.org

> <BindingDB Reactant_set_id>
50503512

> <Ligand InChI>
InChI=1S/C37H27NO10/c39-33(36(42)43)24-8-14-28(15-9-24)46-21-23-6-7-26(22-47-29-16-10-25(11-17-29)34(40)37(44)45)32(20-23)35(41)38-27-12-18-31(19-13-27)48-30-4-2-1-3-5-30/h1-20H,21-22H2,(H,38,41)(H,42
,43)(H,44,45)

> <Ligand InChI Key>
QUVOOCNJFMYRIG-UHFFFAOYSA-N

> <BindingDB MonomerID>
50326508

> <BindingDB Ligand Name>
2,2'-(4,4'-(2-(4-phenoxyphenylcarbamoyl)-1,4-phenylene)bis(methylene)bis(oxy)bis(4,1-phenylene))bis(2-oxoacetic acid)::CHEMBL1240800

> <Target Name>
Tyrosine-protein phosphatase non-receptor type 1

> <Target Source Organism According to Curator or DataSource>
Homo sapiens

> <IC50 (nM)>
1500

> <Curation/DataSource>
ChEMBL

> <Article DOI>
10.1016/j.bmc.2016.06.035

> <BindingDB Entry DOI>
10.7270/Q20Z756P

> <PMID>
27353889

> <Authors>
Li, X; Wang, L; Shi, D

> <Institution>
Chinese Academy of Sciences

> <Link to Ligand in BindingDB>
http://www.bindingdb.org/bind/chemsearch/marvin/MolStructure.jsp?monomerid=50326508

> <Link to Ligand-Target Pair in BindingDB>
http://www.bindingdb.org/jsp/dbsearch/PrimarySearch_ki.jsp?energyterm=kJ/mole&tag=pol&polymerid=2622&target=Tyrosine-protein+phosphatase+non-receptor+type+1&column=ki&startPg=0&Increment=50&submit=Sea
rch
http://www.bindingdb.org/jsp/dbsearch/PrimarySearch_ki.jsp?energyterm=kJ/mole&tag=r21&monomerid=50326508&enzyme=Tyrosine-protein+phosphatase+non-receptor+type+1&column=ki&startPg=0&Increment=50&submit
=Search

> <PubChem CID of Ligand>
52945264

> <PubChem SID of Ligand>
123105623

> <ChEMBL ID of Ligand>
CHEMBL1240800

> <ZINC ID of Ligand>
ZINC72169794

> <Number of Protein Chains in Target (bigger than 1 implies a multichain complex)>
1

> <BindingDB Target Chain Sequence>
MEMEKEFEQIDKSGSWAAIYQDIRHEASDFPCRVAKLPKNKNRNRYRDVSPFDHSRIKLHQEDNDYINASLIKMEEAQRSYILTQGPLPNTCGHFWEMVWEQKSRGVVMLNRVMEKGSLKCAQYWPQKEEKEMIFEDTNLKLTLISEDIKSYYTVRQLELENLTTQETREILHFHYTTWPDFGVPESPASFLNFLFKVRE
SGSLSPEHGPVVVHCSAGIGRSGTFCLADTCLLLMDKRKDPSSVDIKKVLLEMRKFRMGLIQTADQLRFSYLAVIEGAKFIMGDSSVQDQWKELSHEDLEPPPEHIPPPPRPPKRILEPHNGKCREFFPNHQWVKEETQEDKDCPIKEEKGSPLNAAPYGIESMSQDTEVRSRVVGGSLRGAQAASPAKGEPSLPEKDED
HALSYWKPFLVNMCVATVLTAGAYLCYRFLFNSNT

> <PDB ID(s) of Target Chain>
1BZJ,1G7G,1GFY,1JF7,1KAK,1KAV,1LQF,1NL9,1NNY,1NO6,1NZ7,1OEM,1OEO,1OES,1OET,1OEU,1OEV,1ONY,1ONZ,1PH0,1PXH,1PYN,1Q1M,1Q6J,1Q6M,1Q6N,1Q6P,1Q6S,1Q6T,1QXK,1SUG,1T48,1T49,1T4J,1WAX,1XBO,2AZR,2B07,2BGD,2BGE,
2CM2,2CM3,2CM7,2CM8,2CMA,2CMB,2CMC,2CNE,2CNF,2CNG,2CNH,2CNI,2F6T,2F6V,2F6W,2F6Y,2F6Z,2F70,2F71,2FJN,2H4G,2H4K,2HB1,2HNP,2HNQ,2QBP,2QBQ,2QBR,2QBS,2VEU,2VEV,2VEW,2VEX,2VEY,2ZMM,2ZN7,3A5J,3CWE,3D9C,3EAX,
3EB1,3EU0,3I7Z,3I80,3SME,4BJO,4I8N,4QBW,4Y14,5K9V,5K9W,5KA0,5KA1,5T19,6B90,6NTP,6W30,7KEY,7KLX,7LFO,7MN9,7MNA,8DU7,8G65,8G67,8G68,8G69,8G6A,8SKL

> <UniProt (SwissProt) Recommended Name of Target Chain>
Tyrosine-protein phosphatase non-receptor type 1

> <UniProt (SwissProt) Entry Name of Target Chain>
PTN1_HUMAN

> <UniProt (SwissProt) Primary ID of Target Chain>
P18031

> <UniProt (SwissProt) Secondary ID(s) of Target Chain>
Q5TGD8 Q9BQV9 Q9NQQ4

$$$$
Molecule
  SciTegic10242319433D

158168  0  0  0  0            999 V2000
    0.5465   -0.4693   -0.0506 C   0  0
    0.5376    0.8664   -0.0176 C   0  0
   -0.7293    1.6399    0.0428 C   0  0
   -1.8902    0.9430    0.0679 C   0  0
   -1.8876   -0.6362    0.0358 C   0  0
   -0.6958   -1.2528   -0.0226 C   0  0
   -3.1835   -1.5370    0.0773 C   0  0
   -3.1456   -2.9147    0.0152 N   0  0
   -4.2895   -0.9750    0.1669 O   0  0
   -4.3519   -3.8559    0.0690 C   0  0
   -4.3358   -5.1759   -0.1475 C   0  0
   -5.7036   -5.6014    0.0119 N   0  0
   -6.4355   -4.4971    0.3124 N   0  0
   -5.7036   -3.4939    0.3527 N   0  0
   -6.2448   -6.9919   -0.4275 C   0  0
   -7.7408   -7.6004    0.0317 C   0  0  2  0  0  0
   -8.1488   -9.0639   -0.7048 C   0  0  2  0  0  0
   -9.6708   -9.4977   -0.3196 C   0  0  2  0  0  0
  -10.5937   -8.2901   -0.7261 C   0  0  2  0  0  0
  -10.1140   -6.9665    0.0154 C   0  0  2  0  0  0
   -8.7341   -6.6324   -0.3751 O   0  0
   -7.2774  -10.2360   -0.3740 O   0  0
   -9.8756   -9.8308    1.1039 O   0  0
  -12.0204   -8.5346   -0.4085 O   0  0
  -10.1591   -7.0364    1.4768 O   0  0
  -11.4941   -7.1171    2.0194 C   0  0
  -12.6314   -9.6830   -1.0255 C   0  0
  -14.0897   -9.7613   -0.5791 C   0  0
   -9.2629  -11.1302    1.4815 C   0  0
   -9.9901  -12.4084    0.9420 C   0  0
  -14.7704  -10.9046   -0.6834 C   0  0
  -16.1751  -10.9729   -0.2437 C   0  0
  -16.7728   -9.8908    0.2535 C   0  0
  -16.0280   -8.6335    0.3655 C   0  0
  -14.7540   -8.5723   -0.0254 C   0  0
   -9.2999  -13.5429    0.7963 C   0  0
   -9.9551  -14.7653    0.2911 C   0  0
  -11.2500  -14.7512   -0.0185 C   0  0
  -12.0195  -13.5176    0.1484 C   0  0
  -11.4262  -12.4099    0.6025 C   0  0
   -5.9008  -10.1652   -0.7704 C   0  0
   -5.1492  -11.4053   -0.3738 C   0  0
   -3.8174  -11.3974   -0.4030 C   0  0
   -3.0646  -12.5938   -0.0222 C   0  0
   -3.7125  -13.6965    0.3487 C   0  0
   -5.1794  -13.7088    0.3791 C   0  0
   -5.8637  -12.6164    0.0382 C   0  0
   -0.5563    3.2319    0.0682 C   0  0
   -1.5894    4.1395    0.0676 N   0  0
    0.5874    3.6773    0.0718 O   0  0
   -1.3787    5.6575    0.0879 C   0  0
   -2.3492    6.5630   -0.0677 C   0  0
   -1.7032    7.8365    0.0093 N   0  0
   -0.3699    7.6138    0.2029 N   0  0
   -0.1518    6.3892    0.2541 N   0  0
   -2.4095    9.1348   -0.4399 C   0  0
   -2.0805   10.7090    0.0368 C   0  0  2  0  0  0
   -3.0916   11.8301   -0.7148 C   0  0  2  0  0  0
   -2.6705   13.3461   -0.3181 C   0  0  2  0  0  0
   -1.1577   13.5073   -0.7117 C   0  0  2  0  0  0
   -0.2806   12.4044    0.0407 C   0  0  2  0  0  0
   -0.7177   11.0406   -0.3470 O   0  0
   -0.3263   12.4902    1.5000 O   0  0
   -0.6367   14.8607   -0.3921 O   0  0
   -1.3190   15.9711   -1.0130 C   0  0
   -0.6626   17.2761   -0.5676 C   0  0
   -2.8587   13.6869    1.1072 O   0  0
   -4.2865   13.8122    1.4883 C   0  0
   -5.0277   15.0747    0.9419 C   0  0
   -4.5585   11.7007   -0.4057 O   0  0
   -5.2177   10.5028   -0.8507 C   0  0
   -6.6444   10.4358   -0.4090 C   0  0
   -7.2761    9.2634   -0.4405 C   0  0
   -8.6714    9.1675   -0.0161 C   0  0
   -9.3147   10.2578    0.3964 C   0  0
   -8.6202   11.5504    0.4293 C   0  0
   -7.3455   11.6336    0.0490 C   0  0
   -6.3543   15.0393    0.7908 C   0  0
   -7.0864   16.2128    0.2788 C   0  0
   -6.4287   17.3281   -0.0312 C   0  0
   -4.9761   17.3832    0.1415 C   0  0
   -4.3119   16.3192    0.6015 C   0  0
   -1.3185   18.4341   -0.6725 C   0  0
   -0.6817   19.6886   -0.2346 C   0  0
    0.5547   19.6718    0.2615 C   0  0
    1.2775   18.4016    0.3740 C   0  0
    0.6991   17.2642   -0.0152 C   0  0
    0.3022   13.6759    2.0347 C   0  0
    1.5018   -0.9920   -0.0996 H   0  0
    1.4860    1.4033   -0.0356 H   0  0
   -2.8385    1.4786    0.1107 H   0  0
   -0.6501   -2.3415   -0.0493 H   0  0
   -2.1813   -3.3686   -0.0796 H   0  0
   -3.4736   -5.7963   -0.3920 H   0  0
   -6.2537   -6.9753   -1.5173 H   0  0
   -5.5103   -7.7187   -0.0806 H   0  0
   -7.7691   -7.7176    1.1150 H   0  0
   -8.1092   -8.9149   -1.7838 H   0  0
   -9.9473  -10.3634   -0.9215 H   0  0
  -10.5026   -8.1343   -1.8010 H   0  0
  -10.7611   -6.1491   -0.3026 H   0  0
  -11.4425   -7.1656    3.1070 H   0  0
  -11.9879   -8.0115    1.6394 H   0  0
  -12.0616   -6.2352    1.7221 H   0  0
  -12.5847   -9.5846   -2.1100 H   0  0
  -12.1052  -10.5871   -0.7191 H   0  0
   -8.2413  -11.1413    1.1016 H   0  0
   -9.2471  -11.1888    2.5698 H   0  0
  -14.2859  -11.7901   -1.0948 H   0  0
  -16.7260  -11.9099   -0.3252 H   0  0
  -17.8128   -9.9405    0.5760 H   0  0
  -16.5162   -7.7464    0.7690 H   0  0
  -14.2029   -7.6364    0.0662 H   0  0
   -8.2410  -13.5662    1.0535 H   0  0
   -9.3773  -15.6818    0.1711 H   0  0
  -11.7339  -15.6529   -0.3938 H   0  0
  -13.0810  -13.5024   -0.0988 H   0  0
  -12.0095  -11.4971    0.7235 H   0  0
   -5.8495  -10.0510   -1.8531 H   0  0
   -5.4383   -9.3023   -0.2912 H   0  0
   -3.2864  -10.4969   -0.7115 H   0  0
   -1.9749  -12.5819   -0.0422 H   0  0
   -3.1536  -14.5892    0.6294 H   0  0
   -5.7102  -14.6118    0.6806 H   0  0
   -6.9533  -12.6243    0.0660 H   0  0
   -2.5923    3.7667    0.0520 H   0  0
   -3.4111    6.3710   -0.2212 H   0  0
   -2.3001    9.1469   -1.5244 H   0  0
   -3.4573    8.9820   -0.1816 H   0  0
   -2.1850   10.7917    1.1186 H   0  0
   -2.9673   11.7210   -1.7922 H   0  0
   -3.2601   14.0377   -0.9200 H   0  0
   -1.0631   13.3474   -1.7858 H   0  0
    0.7563   12.5276   -0.2719 H   0  0
   -1.2512   15.8805   -2.0971 H   0  0
   -2.3668   15.9691   -0.7125 H   0  0
   -4.8100   12.9307    1.1180 H   0  0
   -4.3410   13.8373    2.5767 H   0  0
   -5.1874   10.4714   -1.9399 H   0  0
   -4.6862    9.6411   -0.4470 H   0  0
   -6.7505    8.3725   -0.7840 H   0  0
   -9.1840    8.2058   -0.0372 H   0  0
  -10.3567   10.1905    0.7094 H   0  0
   -9.1475   12.4433    0.7652 H   0  0
   -6.8275   12.5921    0.0796 H   0  0
   -6.9020   14.1329    1.0488 H   0  0
   -8.1683   16.1668    0.1540 H   0  0
   -6.9688   18.1952   -0.4114 H   0  0
   -4.4343   18.2959   -0.1062 H   0  0
   -3.2303   16.3711    0.7266 H   0  0
   -2.3279   18.4516   -1.0833 H   0  0
   -1.2227   20.6313   -0.3166 H   0  0
    1.0273   20.5999    0.5827 H   0  0
    2.2903   18.3863    0.7766 H   0  0
    1.2389   16.3217    0.0771 H   0  0
    0.2281   13.6681    3.1221 H   0  0
   -0.1988   14.5613    1.6432 H   0  0
    1.3522   13.6942    1.7427 H   0  0
  1  2  2  0
  2  3  1  0
  3  4  2  0
  4  5  1  0
  5  6  2  0
  6  1  1  0
  5  7  1  0
  7  8  1  0
  7  9  2  0
  8 10  1  0
 10 11  2  0
 11 12  1  0
 12 13  1  0
 13 14  2  0
 14 10  1  0
 12 15  1  0
 16 15  1  0
 16 17  1  0
 16 21  1  0
 17 18  1  0
 18 19  1  0
 19 20  1  0
 20 21  1  0
 17 22  1  0
 18 23  1  0
 19 24  1  0
 20 25  1  0
 25 26  1  0
 24 27  1  0
 27 28  1  0
 23 29  1  0
 29 30  1  0
 28 31  2  0
 31 32  1  0
 32 33  2  0
 33 34  1  0
 34 35  2  0
 35 28  1  0
 30 36  2  0
 36 37  1  0
 37 38  2  0
 38 39  1  0
 39 40  2  0
 40 30  1  0
 22 41  1  0
 41 42  1  0
 42 43  2  0
 43 44  1  0
 44 45  2  0
 45 46  1  0
 46 47  2  0
 47 42  1  0
  3 48  1  0
 48 49  1  0
 48 50  2  0
 49 51  1  0
 51 52  2  0
 52 53  1  0
 53 54  1  0
 54 55  2  0
 55 51  1  0
 53 56  1  0
 57 56  1  0
 57 58  1  0
 57 62  1  0
 58 59  1  0
 59 60  1  0
 60 61  1  0
 61 62  1  0
 61 63  1  0
 60 64  1  0
 64 65  1  0
 65 66  1  0
 59 67  1  0
 67 68  1  0
 68 69  1  0
 58 70  1  0
 70 71  1  0
 71 72  1  0
 72 73  2  0
 73 74  1  0
 74 75  2  0
 75 76  1  0
 76 77  2  0
 77 72  1  0
 69 78  2  0
 78 79  1  0
 79 80  2  0
 80 81  1  0
 81 82  2  0
 82 69  1  0
 66 83  2  0
 83 84  1  0
 84 85  2  0
 85 86  1  0
 86 87  2  0
 87 66  1  0
 63 88  1  0
  1 89  1  0
  2 90  1  0
  4 91  1  0
  6 92  1  0
  8 93  1  0
 11 94  1  0
 15 95  1  0
 15 96  1  0
 16 97  1  0
 17 98  1  0
 18 99  1  0
 19100  1  0
 20101  1  0
 26102  1  0
 26103  1  0
 26104  1  0
 27105  1  0
 27106  1  0
 29107  1  0
 29108  1  0
 31109  1  0
 32110  1  0
 33111  1  0
 34112  1  0
 35113  1  0
 36114  1  0
 37115  1  0
 38116  1  0
 39117  1  0
 40118  1  0
 41119  1  0
 41120  1  0
 43121  1  0
 44122  1  0
 45123  1  0
 46124  1  0
 47125  1  0
 49126  1  0
 52127  1  0
 56128  1  0
 56129  1  0
 57130  1  0
 58131  1  0
 59132  1  0
 60133  1  0
 61134  1  0
 65135  1  0
 65136  1  0
 68137  1  0
 68138  1  0
 71139  1  0
 71140  1  0
 73141  1  0
 74142  1  0
 75143  1  0
 76144  1  0
 77145  1  0
 78146  1  0
 79147  1  0
 80148  1  0
 81149  1  0
 82150  1  0
 83151  1  0
 84152  1  0
 85153  1  0
 86154  1  0
 87155  1  0
 88156  1  0
 88157  1  0
 88158  1  0
M  END
> <Name>
Molecule

> <Clean Energy>
101.41

> <From>
www.bindingDB.org

> <BindingDB Reactant_set_id>
50503502

> <Ligand InChI>
InChI=1S/C68H70N8O12/c1-79-67-63(85-45-51-30-17-7-18-31-51)61(83-43-49-26-13-5-14-27-49)59(81-41-47-22-9-3-10-23-47)55(87-67)37-75-39-57(71-73-75)69-65(77)53-34-21-35-54(36-53)66(78)70-58-40-76(74-72-
58)38-56-60(82-42-48-24-11-4-12-25-48)62(84-44-50-28-15-6-16-29-50)64(68(80-2)88-56)86-46-52-32-19-8-20-33-52/h3-36,39-40,55-56,59-64,67-68H,37-38,41-46H2,1-2H3,(H,69,77)(H,70,78)/t55-,56-,59-,60-,61-
,62-,63-,64-,67+,68+/m1/s1

> <Ligand InChI Key>
WISYBQFKOJPGFY-YCCHISAGSA-N

> <BindingDB MonomerID>
50183055

> <BindingDB Ligand Name>
CHEMBL3818449

> <Target Name>
Tyrosine-protein phosphatase non-receptor type 1

> <Target Source Organism According to Curator or DataSource>
Homo sapiens

> <IC50 (nM)>
1500

> <Curation/DataSource>
ChEMBL

> <Article DOI>
10.1016/j.bmc.2016.06.035

> <BindingDB Entry DOI>
10.7270/Q20Z756P

> <PMID>
27353889

> <Authors>
Li, X; Wang, L; Shi, D

> <Institution>
Chinese Academy of Sciences

> <Link to Ligand in BindingDB>
http://www.bindingdb.org/bind/chemsearch/marvin/MolStructure.jsp?monomerid=50183055

> <Link to Ligand-Target Pair in BindingDB>
http://www.bindingdb.org/jsp/dbsearch/PrimarySearch_ki.jsp?energyterm=kJ/mole&tag=pol&polymerid=2622&target=Tyrosine-protein+phosphatase+non-receptor+type+1&column=ki&startPg=0&Increment=50&submit=Sea
rch
http://www.bindingdb.org/jsp/dbsearch/PrimarySearch_ki.jsp?energyterm=kJ/mole&tag=r21&monomerid=50183055&enzyme=Tyrosine-protein+phosphatase+non-receptor+type+1&column=ki&startPg=0&Increment=50&submit
=Search

> <PubChem CID of Ligand>
127050931

> <PubChem SID of Ligand>
346550202

> <ChEMBL ID of Ligand>
CHEMBL3818449

> <Number of Protein Chains in Target (bigger than 1 implies a multichain complex)>
1

> <BindingDB Target Chain Sequence>
MEMEKEFEQIDKSGSWAAIYQDIRHEASDFPCRVAKLPKNKNRNRYRDVSPFDHSRIKLHQEDNDYINASLIKMEEAQRSYILTQGPLPNTCGHFWEMVWEQKSRGVVMLNRVMEKGSLKCAQYWPQKEEKEMIFEDTNLKLTLISEDIKSYYTVRQLELENLTTQETREILHFHYTTWPDFGVPESPASFLNFLFKVRE
SGSLSPEHGPVVVHCSAGIGRSGTFCLADTCLLLMDKRKDPSSVDIKKVLLEMRKFRMGLIQTADQLRFSYLAVIEGAKFIMGDSSVQDQWKELSHEDLEPPPEHIPPPPRPPKRILEPHNGKCREFFPNHQWVKEETQEDKDCPIKEEKGSPLNAAPYGIESMSQDTEVRSRVVGGSLRGAQAASPAKGEPSLPEKDED
HALSYWKPFLVNMCVATVLTAGAYLCYRFLFNSNT

> <PDB ID(s) of Target Chain>
1BZJ,1G7G,1GFY,1JF7,1KAK,1KAV,1LQF,1NL9,1NNY,1NO6,1NZ7,1OEM,1OEO,1OES,1OET,1OEU,1OEV,1ONY,1ONZ,1PH0,1PXH,1PYN,1Q1M,1Q6J,1Q6M,1Q6N,1Q6P,1Q6S,1Q6T,1QXK,1SUG,1T48,1T49,1T4J,1WAX,1XBO,2AZR,2B07,2BGD,2BGE,
2CM2,2CM3,2CM7,2CM8,2CMA,2CMB,2CMC,2CNE,2CNF,2CNG,2CNH,2CNI,2F6T,2F6V,2F6W,2F6Y,2F6Z,2F70,2F71,2FJN,2H4G,2H4K,2HB1,2HNP,2HNQ,2QBP,2QBQ,2QBR,2QBS,2VEU,2VEV,2VEW,2VEX,2VEY,2ZMM,2ZN7,3A5J,3CWE,3D9C,3EAX,
3EB1,3EU0,3I7Z,3I80,3SME,4BJO,4I8N,4QBW,4Y14,5K9V,5K9W,5KA0,5KA1,5T19,6B90,6NTP,6W30,7KEY,7KLX,7LFO,7MN9,7MNA,8DU7,8G65,8G67,8G68,8G69,8G6A,8SKL

> <UniProt (SwissProt) Recommended Name of Target Chain>
Tyrosine-protein phosphatase non-receptor type 1

> <UniProt (SwissProt) Entry Name of Target Chain>
PTN1_HUMAN

> <UniProt (SwissProt) Primary ID of Target Chain>
P18031

> <UniProt (SwissProt) Secondary ID(s) of Target Chain>
Q5TGD8 Q9BQV9 Q9NQQ4

$$$$
24
  SciTegic10242319433D

 81 85  0  0  0  0            999 V2000
    3.2787   -9.6994    0.1944 O   0  0
    7.0399   -7.5388    0.5567 C   0  0  1  0  0  0
    7.0080   -9.0384   -0.0214 C   0  0  2  0  0  0
    9.5639   -9.0968   -0.2479 C   0  0
    5.6953   -9.8550    0.3816 C   0  0
    8.4324   -5.3998    0.3650 C   0  0
    5.7759   -6.8219    0.0434 C   0  0
   12.2431   -7.6310   -0.1815 C   0  0
   13.4427   -6.8854   -0.8423 C   0  0
    4.4896   -9.0125   -0.1254 C   0  0  2  0  0  0
    4.4917   -7.5862    0.5197 C   0  0
    9.6248   -4.7027   -0.3496 C   0  0
    7.0167   -7.3813    2.1232 C   0  0
    5.7041  -11.2170   -0.3348 C   0  0
    6.9957   -8.9608   -1.1143 H   0  0
    5.5233  -10.1648    1.8985 C   0  0
    8.3338   -6.8757   -0.0836 C   0  0  1  0  0  0
    8.1909   -6.9198   -1.1618 H   0  0
    9.7203   -7.6394    0.2565 C   0  0  1  0  0  0
   10.1298   -7.6872    1.7714 C   0  0
   10.9040   -6.8994   -0.5101 C   0  0  2  0  0  0
   10.6833   -6.9445   -2.0545 C   0  0
    8.3123   -9.8079    0.3996 C   0  0
   10.9850   -5.3795    0.0041 C   0  0  1  0  0  0
   11.1389   -5.3542    1.0783 H   0  0
   12.1073   -4.6517   -1.7676 H   0  0
   12.2274   -4.6481   -0.6839 C   0  0  1  0  0  0
   14.0244   -3.0579   -0.9604 C   0  0
   14.5660   -4.5426   -1.0763 C   0  0
   12.6644   -3.1730   -0.2043 C   0  0  1  0  0  0
   11.8231   -1.8853   -0.4345 C   0  0
   10.5362   -1.6070    0.2906 C   0  0
   12.4194   -0.8511   -1.0252 C   0  0
   13.5456   -5.4174   -0.3107 C   0  0  2  0  0  0
   13.8652   -5.4020    1.2218 C   0  0
   14.6517   -4.3837    1.7676 O   0  0
   13.5627   -6.3511    1.9537 O   0  0
    3.2756  -10.6400   -0.2723 H   0  0
    9.4418   -9.0844   -1.3310 H   0  0
   10.4618   -9.6582    0.0105 H   0  0
    7.5072   -4.8829    0.1098 H   0  0
    8.5856   -5.3603    1.4435 H   0  0
    5.7552   -5.8043    0.4337 H   0  0
    5.7950   -6.7934   -1.0460 H   0  0
   12.3848   -7.6535    0.8990 H   0  0
   12.1989   -8.6508   -0.5640 H   0  0
   14.3657   -7.4156   -0.6079 H   0  0
   13.2992   -6.8648   -1.9226 H   0  0
    4.5615   -8.9099   -1.2082 H   0  0
    4.4994   -7.6750    1.6061 H   0  0
    3.6022   -7.0402    0.2056 H   0  0
    9.4722   -4.7589   -1.4274 H   0  0
    9.6595   -3.6578   -0.0411 H   0  0
    6.1163   -7.8478    2.5226 H   0  0
    7.0223   -6.3226    2.3825 H   0  0
    7.8956   -7.8642    2.5505 H   0  0
    4.8097  -11.7772   -0.0622 H   0  0
    6.5892  -11.7791   -0.0368 H   0  0
    5.7196  -11.0606   -1.4134 H   0  0
    4.5993  -10.7218    2.0536 H   0  0
    5.4819   -9.2304    2.4583 H   0  0
    6.3680  -10.7592    2.2466 H   0  0
   11.0733   -8.2227    1.8766 H   0  0
    9.3556   -8.2008    2.3415 H   0  0
   10.2452   -6.6713    2.1494 H   0  0
   11.5054   -6.4325   -2.5546 H   0  0
    9.7438   -6.4506   -2.3023 H   0  0
   10.6465   -7.9821   -2.3866 H   0  0
    8.4079   -9.7970    1.4854 H   0  0
    8.2568  -10.8386    0.0496 H   0  0
   13.8751   -2.6278   -1.9508 H   0  0
   14.7232   -2.4397   -0.3968 H   0  0
   15.5535   -4.6240   -0.6220 H   0  0
   14.6201   -4.8475   -2.1214 H   0  0
   12.8880   -3.2298    0.8610 H   0  0
   10.1336   -0.6487   -0.0374 H   0  0
   10.7233   -1.5735    1.3640 H   0  0
    9.8172   -2.3965    0.0720 H   0  0
   13.4634   -0.9251   -1.3296 H   0  0
   11.8634    0.0692   -1.2042 H   0  0
   15.5988   -4.3912    1.3142 H   0  0
 10  1  1  0
 19 17  1  0
 21 19  1  0
 19  4  1  0
 17  2  1  0
 17  6  1  0
  2  3  1  0
  2  7  1  0
  2 13  1  0
 24 21  1  0
 21  8  1  0
  3 23  1  0
  3  5  1  0
  3 15  1  0
  4 23  1  0
 27 24  1  0
 10  5  1  0
  5 14  1  0
  5 16  1  0
  6 12  1  0
  7 11  1  0
  8  9  1  0
 34  9  1  0
 10 11  1  0
 17 18  1  0
 19 20  1  0
 21 22  1  0
 24 12  1  0
 24 25  1  0
 27 26  1  0
 27 30  1  0
 27 34  1  0
 34 29  1  0
 30 28  1  0
 28 29  1  0
 30 31  1  0
 31 32  1  0
 31 33  2  0
 34 35  1  0
 35 36  1  0
 35 37  2  0
  1 38  1  0
  4 39  1  0
  4 40  1  0
  6 41  1  0
  6 42  1  0
  7 43  1  0
  7 44  1  0
  8 45  1  0
  8 46  1  0
  9 47  1  0
  9 48  1  0
 10 49  1  0
 11 50  1  0
 11 51  1  0
 12 52  1  0
 12 53  1  0
 13 54  1  0
 13 55  1  0
 13 56  1  0
 14 57  1  0
 14 58  1  0
 14 59  1  0
 16 60  1  0
 16 61  1  0
 16 62  1  0
 20 63  1  0
 20 64  1  0
 20 65  1  0
 22 66  1  0
 22 67  1  0
 22 68  1  0
 23 69  1  0
 23 70  1  0
 28 71  1  0
 28 72  1  0
 29 73  1  0
 29 74  1  0
 30 75  1  0
 32 76  1  0
 32 77  1  0
 32 78  1  0
 33 79  1  0
 33 80  1  0
 36 81  1  0
M  END
> <Name>
24

> <Clean Energy>
82.4636

> <From>
www.bindingDB.org

> <BindingDB Reactant_set_id>
51406865

> <Ligand InChI>
InChI=1S/C30H48O3/c1-18(2)19-10-15-30(25(32)33)17-16-28(6)20(24(19)30)8-9-22-27(5)13-12-23(31)26(3,4)21(27)11-14-29(22,28)7/h19-24,31H,1,8-17H2,2-7H3,(H,32,33)/t19-,20+,21-,22+,23-,24+,27-,28+,29+,30-
/m0/s1

> <Ligand InChI Key>
QGJZLNKBHJESQX-FZFNOLFKSA-N

> <BindingDB MonomerID>
23208

> <BindingDB Ligand Name>
(1R,2R,5S,8R,9R,10R,13R,14R,17S,19R)-17-hydroxy-1,2,14,18,18-pentamethyl-8-(prop-1-en-2-yl)pentacyclo[11.8.0.0^{2,10}.0^{5,9}.0^{14,19}]henicosane-5-carboxylic acid::Betulinic Acid, 24::CHEMBL269277::
cid_64971

> <Target Name>
Tyrosine-protein phosphatase non-receptor type 1

> <Target Source Organism According to Curator or DataSource>
Homo sapiens

> <IC50 (nM)>
1500

> <Curation/DataSource>
ChEMBL

> <Article DOI>
10.1016/j.bmc.2021.116295

> <BindingDB Entry DOI>
10.7270/Q2X92G2J

> <PMID>
34246920

> <Authors>
Sánchez-Alonso, P; Griera, M; García-Marín, J; Rodríguez-Puyol, M; Alajarín, R; Vaquero, JJ; Rodríguez-Puyol, D

> <Institution>
Universidad de Alcal&#163;

> <Link to Ligand in BindingDB>
http://www.bindingdb.org/bind/chemsearch/marvin/MolStructure.jsp?monomerid=23208

> <Link to Ligand-Target Pair in BindingDB>
http://www.bindingdb.org/jsp/dbsearch/PrimarySearch_ki.jsp?energyterm=kJ/mole&tag=pol&polymerid=2622&target=Tyrosine-protein+phosphatase+non-receptor+type+1&column=ki&startPg=0&Increment=50&submit=Sea
rch
http://www.bindingdb.org/jsp/dbsearch/PrimarySearch_ki.jsp?energyterm=kJ/mole&tag=r21&monomerid=23208&enzyme=Tyrosine-protein+phosphatase+non-receptor+type+1&column=ki&startPg=0&Increment=50&submit=Se
arch

> <Ligand HET ID in PDB>
06L

> <PubChem CID of Ligand>
64971

> <PubChem SID of Ligand>
49847021

> <ChEBI ID of Ligand>
3087

> <ChEMBL ID of Ligand>
CHEMBL269277

> <IUPHAR_GRAC ID of Ligand>
3945

> <KEGG ID of Ligand>
C08619

> <ZINC ID of Ligand>
ZINC04097714

> <Number of Protein Chains in Target (bigger than 1 implies a multichain complex)>
1

> <BindingDB Target Chain Sequence>
MEMEKEFEQIDKSGSWAAIYQDIRHEASDFPCRVAKLPKNKNRNRYRDVSPFDHSRIKLHQEDNDYINASLIKMEEAQRSYILTQGPLPNTCGHFWEMVWEQKSRGVVMLNRVMEKGSLKCAQYWPQKEEKEMIFEDTNLKLTLISEDIKSYYTVRQLELENLTTQETREILHFHYTTWPDFGVPESPASFLNFLFKVRE
SGSLSPEHGPVVVHCSAGIGRSGTFCLADTCLLLMDKRKDPSSVDIKKVLLEMRKFRMGLIQTADQLRFSYLAVIEGAKFIMGDSSVQDQWKELSHEDLEPPPEHIPPPPRPPKRILEPHNGKCREFFPNHQWVKEETQEDKDCPIKEEKGSPLNAAPYGIESMSQDTEVRSRVVGGSLRGAQAASPAKGEPSLPEKDED
HALSYWKPFLVNMCVATVLTAGAYLCYRFLFNSNT

> <PDB ID(s) of Target Chain>
1BZJ,1G7G,1GFY,1JF7,1KAK,1KAV,1LQF,1NL9,1NNY,1NO6,1NZ7,1OEM,1OEO,1OES,1OET,1OEU,1OEV,1ONY,1ONZ,1PH0,1PXH,1PYN,1Q1M,1Q6J,1Q6M,1Q6N,1Q6P,1Q6S,1Q6T,1QXK,1SUG,1T48,1T49,1T4J,1WAX,1XBO,2AZR,2B07,2BGD,2BGE,
2CM2,2CM3,2CM7,2CM8,2CMA,2CMB,2CMC,2CNE,2CNF,2CNG,2CNH,2CNI,2F6T,2F6V,2F6W,2F6Y,2F6Z,2F70,2F71,2FJN,2H4G,2H4K,2HB1,2HNP,2HNQ,2QBP,2QBQ,2QBR,2QBS,2VEU,2VEV,2VEW,2VEX,2VEY,2ZMM,2ZN7,3A5J,3CWE,3D9C,3EAX,
3EB1,3EU0,3I7Z,3I80,3SME,4BJO,4I8N,4QBW,4Y14,5K9V,5K9W,5KA0,5KA1,5T19,6B90,6NTP,6W30,7KEY,7KLX,7LFO,7MN9,7MNA,8DU7,8G65,8G67,8G68,8G69,8G6A,8SKL

> <UniProt (SwissProt) Recommended Name of Target Chain>
Tyrosine-protein phosphatase non-receptor type 1

> <UniProt (SwissProt) Entry Name of Target Chain>
PTN1_HUMAN

> <UniProt (SwissProt) Primary ID of Target Chain>
P18031

> <UniProt (SwissProt) Secondary ID(s) of Target Chain>
Q5TGD8 Q9BQV9 Q9NQQ4

$$$$
Molecule
  SciTegic10242319433D

 51 54  0  0  0  0            999 V2000
    4.0168  -21.7795    0.0354 C   0  0
    2.6889  -21.6557    0.0597 C   0  0
    1.8430  -22.8261   -0.1782 C   0  0
    2.4061  -24.0068   -0.4248 C   0  0
    3.8620  -24.1448   -0.4622 C   0  0
    4.6322  -23.0832   -0.2383 C   0  0
   -0.5131  -23.8311   -0.2122 C   0  0
    0.3757  -22.7168   -0.1221 C   0  0
   -0.2868  -21.6416    0.0474 N   0  0
   -1.5867  -21.9454    0.0674 O   0  0
   -1.7180  -23.3017   -0.0726 C   0  0
   -5.4503  -23.8821    0.0788 C   0  0
   -5.5250  -25.3466    0.0197 C   0  0
   -4.4041  -26.0579   -0.0790 C   0  0
   -3.0917  -25.3888   -0.1037 C   0  0
   -3.0249  -24.0463   -0.0633 C   0  0
   -4.2669  -23.2697    0.0540 C   0  0
   -6.7638  -26.0106    0.0488 O   0  0
   -7.8512  -25.0795    0.1433 C   0  0
   -1.9252  -26.1576   -0.2140 O   0  0
   -2.1629  -27.5737   -0.2351 C   0  0
   -0.8625  -28.3313   -0.6722 C   0  0
    0.2838  -28.2464    0.2903 N   0  0
    1.4832  -28.8731   -0.2994 C   0  0
    2.6662  -28.2996    0.5364 C   0  0
    1.9936  -27.2148    1.3955 C   0  0
    0.7539  -26.9040    0.5728 C   0  0
    4.6469  -20.9094    0.2196 H   0  0
    2.2346  -20.6846    0.2564 H   0  0
    1.7764  -24.8791   -0.6005 H   0  0
    4.3142  -25.1139   -0.6728 H   0  0
    5.7176  -23.1817   -0.2581 H   0  0
   -0.2571  -24.8800   -0.3621 H   0  0
   -6.3654  -23.2935    0.1432 H   0  0
   -4.4577  -27.1448   -0.1421 H   0  0
   -4.2198  -22.1828    0.1213 H   0  0
   -8.7954  -25.6236    0.1637 H   0  0
   -7.8353  -24.4128   -0.7190 H   0  0
   -7.7503  -24.4936    1.0569 H   0  0
   -2.4553  -27.9050    0.7613 H   0  0
   -2.9632  -27.7943   -0.9415 H   0  0
   -1.1143  -29.3836   -0.8035 H   0  0
   -0.5340  -27.9142   -1.6242 H   0  0
    1.4363  -29.9583   -0.2082 H   0  0
    1.5845  -28.6003   -1.3499 H   0  0
    3.1137  -29.0720    1.1619 H   0  0
    3.4295  -27.8681   -0.1111 H   0  0
    1.7313  -27.5945    2.3829 H   0  0
    2.6319  -26.3375    1.5007 H   0  0
    0.0229  -26.3337    1.1458 H   0  0
    1.0019  -26.3637   -0.3408 H   0  0
 13 14  2  0
  1  2  2  0
 14 15  1  0
  3  4  2  0
 15 16  2  0
  8  9  2  0
 16 17  1  0
 17 12  2  0
 13 18  1  0
 16 11  1  0
  4  5  1  0
 18 19  1  0
  8  3  1  0
  2  3  1  0
 15 20  1  0
  7  8  1  0
 20 21  1  0
  9 10  1  0
 21 22  1  0
 11  7  2  0
 22 23  1  0
 23 24  1  0
  5  6  2  0
  6  1  1  0
 12 13  1  0
 10 11  1  0
 24 25  1  0
 25 26  1  0
 26 27  1  0
 27 23  1  0
  1 28  1  0
  2 29  1  0
  4 30  1  0
  5 31  1  0
  6 32  1  0
  7 33  1  0
 12 34  1  0
 14 35  1  0
 17 36  1  0
 19 37  1  0
 19 38  1  0
 19 39  1  0
 21 40  1  0
 21 41  1  0
 22 42  1  0
 22 43  1  0
 24 44  1  0
 24 45  1  0
 25 46  1  0
 25 47  1  0
 26 48  1  0
 26 49  1  0
 27 50  1  0
 27 51  1  0
M  END
> <Name>
Molecule

> <Clean Energy>
38.0883

> <From>
www.bindingDB.org

> <BindingDB Reactant_set_id>
50644732

> <Ligand InChI>
InChI=1S/C22H24N2O3/c1-25-18-9-10-19(21(15-18)26-14-13-24-11-5-6-12-24)22-16-20(23-27-22)17-7-3-2-4-8-17/h2-4,7-10,15-16H,5-6,11-14H2,1H3

> <Ligand InChI Key>
DMBPQAWYCKWQTB-UHFFFAOYSA-N

> <BindingDB MonomerID>
50346150

> <BindingDB Ligand Name>
5-(2-(2-(1H-pyrrol-1-yl)ethoxy)-4-methoxyphenyl)-3-phenylisoxazole::CHEMBL1783776

> <Target Name>
Tyrosine-protein phosphatase non-receptor type 1

> <Target Source Organism According to Curator or DataSource>
Homo sapiens

> <IC50 (nM)>
1500

> <Curation/DataSource>
ChEMBL

> <Article DOI>
10.1016/j.bmc.2009.05.033

> <BindingDB Entry DOI>
10.7270/Q2J966QV

> <PMID>
19500993

> <Authors>
Kumar, A; Maurya, RA; Sharma, S; Ahmad, P; Singh, AB; Tamrakar, AK; Srivastava, AK

> <Institution>
Central Drug Research Institute

> <Link to Ligand in BindingDB>
http://www.bindingdb.org/bind/chemsearch/marvin/MolStructure.jsp?monomerid=50346150

> <Link to Ligand-Target Pair in BindingDB>
http://www.bindingdb.org/jsp/dbsearch/PrimarySearch_ki.jsp?energyterm=kJ/mole&tag=pol&polymerid=2622&target=Tyrosine-protein+phosphatase+non-receptor+type+1&column=ki&startPg=0&Increment=50&submit=Sea
rch
http://www.bindingdb.org/jsp/dbsearch/PrimarySearch_ki.jsp?energyterm=kJ/mole&tag=r21&monomerid=50346150&enzyme=Tyrosine-protein+phosphatase+non-receptor+type+1&column=ki&startPg=0&Increment=50&submit
=Search

> <PubChem CID of Ligand>
44537950

> <PubChem SID of Ligand>
131349081

> <ChEMBL ID of Ligand>
CHEMBL1783776

> <ZINC ID of Ligand>
ZINC71281352

> <Number of Protein Chains in Target (bigger than 1 implies a multichain complex)>
1

> <BindingDB Target Chain Sequence>
MEMEKEFEQIDKSGSWAAIYQDIRHEASDFPCRVAKLPKNKNRNRYRDVSPFDHSRIKLHQEDNDYINASLIKMEEAQRSYILTQGPLPNTCGHFWEMVWEQKSRGVVMLNRVMEKGSLKCAQYWPQKEEKEMIFEDTNLKLTLISEDIKSYYTVRQLELENLTTQETREILHFHYTTWPDFGVPESPASFLNFLFKVRE
SGSLSPEHGPVVVHCSAGIGRSGTFCLADTCLLLMDKRKDPSSVDIKKVLLEMRKFRMGLIQTADQLRFSYLAVIEGAKFIMGDSSVQDQWKELSHEDLEPPPEHIPPPPRPPKRILEPHNGKCREFFPNHQWVKEETQEDKDCPIKEEKGSPLNAAPYGIESMSQDTEVRSRVVGGSLRGAQAASPAKGEPSLPEKDED
HALSYWKPFLVNMCVATVLTAGAYLCYRFLFNSNT

> <PDB ID(s) of Target Chain>
1BZJ,1G7G,1GFY,1JF7,1KAK,1KAV,1LQF,1NL9,1NNY,1NO6,1NZ7,1OEM,1OEO,1OES,1OET,1OEU,1OEV,1ONY,1ONZ,1PH0,1PXH,1PYN,1Q1M,1Q6J,1Q6M,1Q6N,1Q6P,1Q6S,1Q6T,1QXK,1SUG,1T48,1T49,1T4J,1WAX,1XBO,2AZR,2B07,2BGD,2BGE,
2CM2,2CM3,2CM7,2CM8,2CMA,2CMB,2CMC,2CNE,2CNF,2CNG,2CNH,2CNI,2F6T,2F6V,2F6W,2F6Y,2F6Z,2F70,2F71,2FJN,2H4G,2H4K,2HB1,2HNP,2HNQ,2QBP,2QBQ,2QBR,2QBS,2VEU,2VEV,2VEW,2VEX,2VEY,2ZMM,2ZN7,3A5J,3CWE,3D9C,3EAX,
3EB1,3EU0,3I7Z,3I80,3SME,4BJO,4I8N,4QBW,4Y14,5K9V,5K9W,5KA0,5KA1,5T19,6B90,6NTP,6W30,7KEY,7KLX,7LFO,7MN9,7MNA,8DU7,8G65,8G67,8G68,8G69,8G6A,8SKL

> <UniProt (SwissProt) Recommended Name of Target Chain>
Tyrosine-protein phosphatase non-receptor type 1

> <UniProt (SwissProt) Entry Name of Target Chain>
PTN1_HUMAN

> <UniProt (SwissProt) Primary ID of Target Chain>
P18031

> <UniProt (SwissProt) Secondary ID(s) of Target Chain>
Q5TGD8 Q9BQV9 Q9NQQ4

$$$$
14a
  SciTegic10242319433D

 35 37  0  0  0  0            999 V2000
   -3.7116    2.3906   -0.0001 C   0  0
   -4.8600    1.6999   -0.0001 C   0  0
   -4.8462    0.2038    0.0000 C   0  0
   -3.6910   -0.4669    0.0001 C   0  0
   -2.4809    1.6230    0.0000 C   0  0
   -2.4691    0.3028    0.0001 C   0  0
   -1.1230    2.0690    0.0001 C   0  0
   -0.3217    0.8647    0.0002 C   0  0
   -1.1359   -0.2032    0.0003 N   0  0
    0.9123    0.8208    0.0003 O   0  0
   -0.6836    3.2637    0.0000 N   0  0
    0.6387    3.4489    0.0000 N   0  0
    1.2048    4.7253    0.0000 C   0  0
    1.0241    7.1426    0.0003 C   0  0
    0.4241    5.8039    0.0002 C   0  0
    2.6717    4.8809   -0.0001 C   0  0
    3.2099    6.0991   -0.0001 C   0  0
    2.3490    7.2818    0.0001 C   0  0
    3.5522    3.7065   -0.0003 C   0  0
    4.7785    3.8608   -0.0005 O   0  0
    3.0207    2.4235   -0.0004 O   0  0
   -6.1424    2.3991   -0.0003 C   0  0
   -6.1760    3.6344   -0.0004 O   0  0
   -7.3283    1.6692   -0.0003 O   0  0
   -3.7028    3.4806   -0.0002 H   0  0
   -5.7883   -0.3444    0.0000 H   0  0
   -3.6713   -1.5568    0.0002 H   0  0
   -0.8419   -1.2320    0.0004 H   0  0
    1.2831    2.5947    0.0000 H   0  0
    0.3845    8.0253    0.0004 H   0  0
   -0.6602    5.6923    0.0003 H   0  0
    4.2937    6.2150   -0.0002 H   0  0
    2.7919    8.2778    0.0001 H   0  0
    2.4295    2.2890    0.8569 H   0  0
   -7.3673    1.0640   -0.8575 H   0  0
  1  2  2  0
  1  5  1  0
  2  3  1  0
  3  4  2  0
  4  6  1  0
  7  5  1  0
  5  6  2  0
  6  9  1  0
  7  8  1  0
  9  8  1  0
  8 10  2  0
  7 11  2  0
 11 12  1  0
 12 13  1  0
 15 13  2  0
 13 16  1  0
 14 15  1  0
 14 18  2  0
 16 17  2  0
 17 18  1  0
 16 19  1  0
  2 22  1  0
 19 20  2  0
 19 21  1  0
 22 24  1  0
 22 23  2  0
  1 25  1  0
  3 26  1  0
  4 27  1  0
  9 28  1  0
 12 29  1  0
 14 30  1  0
 15 31  1  0
 17 32  1  0
 18 33  1  0
 21 34  1  0
 24 35  1  0
M  END
> <Name>
14a

> <Clean Energy>
19.1723

> <From>
www.bindingDB.org

> <BindingDB Reactant_set_id>
44518

> <Ligand InChI>
InChI=1S/C16H11N3O5/c20-14-13(10-7-8(15(21)22)5-6-11(10)17-14)19-18-12-4-2-1-3-9(12)16(23)24/h1-7,18H,(H,21,22)(H,23,24)(H,17,19,20)

> <Ligand InChI Key>
CUGFLOKHGAUBLN-UHFFFAOYSA-N

> <BindingDB MonomerID>
24533

> <BindingDB Ligand Name>
(3Z)-3-[2-(2-carboxyphenyl)hydrazin-1-ylidene]-2-oxo-2,3-dihydro-1H-indole-5-carboxylic acid::Oxindole scaffold, 14a

> <Target Name>
Tyrosine-protein phosphatase non-receptor type 1

> <Target Source Organism According to Curator or DataSource>
Homo sapiens

> <IC50 (nM)>
1500

> <Curation/DataSource>
Curated from the literature by BindingDB

> <Article DOI>
10.1021/jm8002526

> <BindingDB Entry DOI>
10.7270/Q2XD0ZZ8

> <PMID>
18680359

> <PubChem AID>
aid1798441

> <Authors>
Lawrence, HR; Pireddu, R; Chen, L; Luo, Y; Sung, SS; Szymanski, AM; Yip, ML; Guida, WC; Sebti, SM; Wu, J; Lawrence, NJ

> <Institution>
Moffitt Cancer Center

> <Link to Ligand in BindingDB>
http://www.bindingdb.org/bind/chemsearch/marvin/MolStructure.jsp?monomerid=24533

> <Link to Ligand-Target Pair in BindingDB>
http://www.bindingdb.org/jsp/dbsearch/PrimarySearch_ki.jsp?energyterm=kJ/mole&tag=pol&polymerid=2622&target=Tyrosine-protein+phosphatase+non-receptor+type+1&column=ki&startPg=0&Increment=50&submit=Sea
rch
http://www.bindingdb.org/jsp/dbsearch/PrimarySearch_ki.jsp?energyterm=kJ/mole&tag=r21&monomerid=24533&enzyme=Tyrosine-protein+phosphatase+non-receptor+type+1&column=ki&startPg=0&Increment=50&submit=Se
arch

> <PubChem CID of Ligand>
24971250

> <PubChem SID of Ligand>
56269484

> <ZINC ID of Ligand>
ZINC40425072

> <Number of Protein Chains in Target (bigger than 1 implies a multichain complex)>
1

> <BindingDB Target Chain Sequence>
MEMEKEFEQIDKSGSWAAIYQDIRHEASDFPCRVAKLPKNKNRNRYRDVSPFDHSRIKLHQEDNDYINASLIKMEEAQRSYILTQGPLPNTCGHFWEMVWEQKSRGVVMLNRVMEKGSLKCAQYWPQKEEKEMIFEDTNLKLTLISEDIKSYYTVRQLELENLTTQETREILHFHYTTWPDFGVPESPASFLNFLFKVRE
SGSLSPEHGPVVVHCSAGIGRSGTFCLADTCLLLMDKRKDPSSVDIKKVLLEMRKFRMGLIQTADQLRFSYLAVIEGAKFIMGDSSVQDQWKELSHEDLEPPPEHIPPPPRPPKRILEPHNGKCREFFPNHQWVKEETQEDKDCPIKEEKGSPLNAAPYGIESMSQDTEVRSRVVGGSLRGAQAASPAKGEPSLPEKDED
HALSYWKPFLVNMCVATVLTAGAYLCYRFLFNSNT

> <PDB ID(s) of Target Chain>
1BZJ,1G7G,1GFY,1JF7,1KAK,1KAV,1LQF,1NL9,1NNY,1NO6,1NZ7,1OEM,1OEO,1OES,1OET,1OEU,1OEV,1ONY,1ONZ,1PH0,1PXH,1PYN,1Q1M,1Q6J,1Q6M,1Q6N,1Q6P,1Q6S,1Q6T,1QXK,1SUG,1T48,1T49,1T4J,1WAX,1XBO,2AZR,2B07,2BGD,2BGE,
2CM2,2CM3,2CM7,2CM8,2CMA,2CMB,2CMC,2CNE,2CNF,2CNG,2CNH,2CNI,2F6T,2F6V,2F6W,2F6Y,2F6Z,2F70,2F71,2FJN,2H4G,2H4K,2HB1,2HNP,2HNQ,2QBP,2QBQ,2QBR,2QBS,2VEU,2VEV,2VEW,2VEX,2VEY,2ZMM,2ZN7,3A5J,3CWE,3D9C,3EAX,
3EB1,3EU0,3I7Z,3I80,3SME,4BJO,4I8N,4QBW,4Y14,5K9V,5K9W,5KA0,5KA1,5T19,6B90,6NTP,6W30,7KEY,7KLX,7LFO,7MN9,7MNA,8DU7,8G65,8G67,8G68,8G69,8G6A,8SKL

> <UniProt (SwissProt) Recommended Name of Target Chain>
Tyrosine-protein phosphatase non-receptor type 1

> <UniProt (SwissProt) Entry Name of Target Chain>
PTN1_HUMAN

> <UniProt (SwissProt) Primary ID of Target Chain>
P18031

> <UniProt (SwissProt) Secondary ID(s) of Target Chain>
Q5TGD8 Q9BQV9 Q9NQQ4

$$$$
Molecule
  SciTegic10242319433D

 36 37  0  0  0  0            999 V2000
    9.2534  -17.3298    0.0171 C   0  0
    9.2895  -18.6155    0.4137 C   0  0
   10.5961  -19.3187    0.4653 C   0  0
   10.4954  -16.6609   -0.3622 C   0  0
   11.6544  -17.2993   -0.3036 C   0  0
   11.7188  -18.6824    0.1111 C   0  0
   13.0315  -19.3558    0.1481 C   0  0
   14.1323  -18.6695   -0.1954 C   0  0
   14.0435  -17.2557   -0.6044 C   0  0
   12.8805  -16.6147   -0.6621 C   0  0
    8.0343  -19.3771    0.8537 C   0  0
    7.1904  -19.9193   -0.4802 P   0  0
    5.9353  -20.6932    0.0019 O   0  0
    6.7919  -18.8597   -1.2677 O   0  0
    8.0894  -20.8671   -1.3101 O   0  0
    8.4017  -20.4795    1.5921 F   0  0
    7.1865  -18.5687    1.5777 F   0  0
    7.6347  -16.3196   -0.0865 Br  0  0
   15.4971  -19.3108   -0.1801 C   0  0
   15.4456  -20.7227    0.0402 N   0  0
   16.5909  -21.4044    0.0499 C   0  0
   16.5890  -22.8899    0.2578 C   0  0
   17.6618  -20.8082   -0.1201 O   0  0
   10.6410  -20.3573    0.7929 H   0  0
   10.4680  -15.6242   -0.6975 H   0  0
   13.1061  -20.4001    0.4513 H   0  0
   14.9567  -16.7215   -0.8667 H   0  0
   12.8488  -15.5725   -0.9797 H   0  0
    6.2321  -21.5103    0.5908 H   0  0
    8.9470  -20.3498   -1.6257 H   0  0
   15.9789  -19.1260   -1.1403 H   0  0
   16.0862  -18.8559    0.6161 H   0  0
   14.5105  -21.2198    0.1934 H   0  0
   17.6131  -23.2621    0.2333 H   0  0
   16.0105  -23.3673   -0.5332 H   0  0
   16.1419  -23.1214    1.2246 H   0  0
  2 11  1  0
  2  3  1  0
 11 12  1  0
  5  6  1  0
 12 13  1  0
  3  6  2  0
 12 14  2  0
  6  7  1  0
 12 15  1  0
  1  2  2  0
 11 16  1  0
  7  8  2  0
 11 17  1  0
  5  4  2  0
  1 18  1  0
  8  9  1  0
  8 19  1  0
  4  1  1  0
 19 20  1  0
  9 10  2  0
 20 21  1  0
 10  5  1  0
 21 22  1  0
 21 23  2  0
  3 24  1  0
  4 25  1  0
  7 26  1  0
  9 27  1  0
 10 28  1  0
 13 29  1  0
 15 30  1  0
 19 31  1  0
 19 32  1  0
 20 33  1  0
 22 34  1  0
 22 35  1  0
 22 36  1  0
M  END
> <Name>
Molecule

> <Clean Energy>
11.0674

> <From>
www.bindingDB.org

> <BindingDB Reactant_set_id>
50859539

> <Ligand InChI>
InChI=1S/C14H13BrF2NO4P/c1-8(19)18-7-9-2-3-10-6-13(15)12(5-11(10)4-9)14(16,17)23(20,21)22/h2-6H,7H2,1H3,(H,18,19)(H2,20,21,22)

> <Ligand InChI Key>
DSIACKDHAOYKIY-UHFFFAOYSA-N

> <BindingDB MonomerID>
50373445

> <BindingDB Ligand Name>
CHEMBL259266

> <Target Name>
Tyrosine-protein phosphatase non-receptor type 1

> <Target Source Organism According to Curator or DataSource>
Homo sapiens

> <IC50 (nM)>
1500

> <Curation/DataSource>
ChEMBL

> <Article DOI>
10.1016/j.bmcl.2008.04.064

> <BindingDB Entry DOI>
10.7270/Q24M95DX

> <PMID>
18477508

> <Authors>
Han, Y; Belley, M; Bayly, CI; Colucci, J; Dufresne, C; Giroux, A; Lau, CK; Leblanc, Y; McKay, D; Therien, M; Wilson, MC; Skorey, K; Chan, CC; Scapin, G; Kennedy, BP

> <Institution>
Merck Frosst Centre for Therapeutic Research

> <Link to Ligand in BindingDB>
http://www.bindingdb.org/bind/chemsearch/marvin/MolStructure.jsp?monomerid=50373445

> <Link to Ligand-Target Pair in BindingDB>
http://www.bindingdb.org/jsp/dbsearch/PrimarySearch_ki.jsp?energyterm=kJ/mole&tag=pol&polymerid=2622&target=Tyrosine-protein+phosphatase+non-receptor+type+1&column=ki&startPg=0&Increment=50&submit=Sea
rch
http://www.bindingdb.org/jsp/dbsearch/PrimarySearch_ki.jsp?energyterm=kJ/mole&tag=r21&monomerid=50373445&enzyme=Tyrosine-protein+phosphatase+non-receptor+type+1&column=ki&startPg=0&Increment=50&submit
=Search

> <PubChem CID of Ligand>
44449557

> <PubChem SID of Ligand>
160852546

> <ChEMBL ID of Ligand>
CHEMBL259266

> <ZINC ID of Ligand>
ZINC29047633

> <Number of Protein Chains in Target (bigger than 1 implies a multichain complex)>
1

> <BindingDB Target Chain Sequence>
MEMEKEFEQIDKSGSWAAIYQDIRHEASDFPCRVAKLPKNKNRNRYRDVSPFDHSRIKLHQEDNDYINASLIKMEEAQRSYILTQGPLPNTCGHFWEMVWEQKSRGVVMLNRVMEKGSLKCAQYWPQKEEKEMIFEDTNLKLTLISEDIKSYYTVRQLELENLTTQETREILHFHYTTWPDFGVPESPASFLNFLFKVRE
SGSLSPEHGPVVVHCSAGIGRSGTFCLADTCLLLMDKRKDPSSVDIKKVLLEMRKFRMGLIQTADQLRFSYLAVIEGAKFIMGDSSVQDQWKELSHEDLEPPPEHIPPPPRPPKRILEPHNGKCREFFPNHQWVKEETQEDKDCPIKEEKGSPLNAAPYGIESMSQDTEVRSRVVGGSLRGAQAASPAKGEPSLPEKDED
HALSYWKPFLVNMCVATVLTAGAYLCYRFLFNSNT

> <PDB ID(s) of Target Chain>
1BZJ,1G7G,1GFY,1JF7,1KAK,1KAV,1LQF,1NL9,1NNY,1NO6,1NZ7,1OEM,1OEO,1OES,1OET,1OEU,1OEV,1ONY,1ONZ,1PH0,1PXH,1PYN,1Q1M,1Q6J,1Q6M,1Q6N,1Q6P,1Q6S,1Q6T,1QXK,1SUG,1T48,1T49,1T4J,1WAX,1XBO,2AZR,2B07,2BGD,2BGE,
2CM2,2CM3,2CM7,2CM8,2CMA,2CMB,2CMC,2CNE,2CNF,2CNG,2CNH,2CNI,2F6T,2F6V,2F6W,2F6Y,2F6Z,2F70,2F71,2FJN,2H4G,2H4K,2HB1,2HNP,2HNQ,2QBP,2QBQ,2QBR,2QBS,2VEU,2VEV,2VEW,2VEX,2VEY,2ZMM,2ZN7,3A5J,3CWE,3D9C,3EAX,
3EB1,3EU0,3I7Z,3I80,3SME,4BJO,4I8N,4QBW,4Y14,5K9V,5K9W,5KA0,5KA1,5T19,6B90,6NTP,6W30,7KEY,7KLX,7LFO,7MN9,7MNA,8DU7,8G65,8G67,8G68,8G69,8G6A,8SKL

> <UniProt (SwissProt) Recommended Name of Target Chain>
Tyrosine-protein phosphatase non-receptor type 1

> <UniProt (SwissProt) Entry Name of Target Chain>
PTN1_HUMAN

> <UniProt (SwissProt) Primary ID of Target Chain>
P18031

> <UniProt (SwissProt) Secondary ID(s) of Target Chain>
Q5TGD8 Q9BQV9 Q9NQQ4

$$$$
Molecule
  SciTegic10242319433D

 65 67  0  0  0  0            999 V2000
   28.7745  -10.9293   -1.2960 O   0  0
   28.7455  -11.7800   -0.0409 S   0  0
   28.9035  -10.8949    1.1803 O   0  0
   13.3592  -11.4160   -0.2663 C   0  0
   13.0331  -12.9004   -0.4444 C   0  0
   13.9145  -13.8820   -0.2337 C   0  0
   14.7308  -11.1388    0.4316 C   0  0
   15.7580  -12.0961   -0.1531 C   0  0  2  0  0  0
   15.3031  -13.5927    0.2367 C   0  0  2  0  0  0
   16.3000  -14.5648   -0.4019 C   0  0
   17.7380  -14.2667    0.1118 C   0  0
   18.2452  -12.8440   -0.3170 C   0  0  1  0  0  0
   17.2870  -11.7440    0.3229 C   0  0  2  0  0  0
   19.7371  -12.8696    0.1876 C   0  0
   20.8792  -11.8495    0.0607 C   0  0
   18.2334  -12.7635   -1.8693 C   0  0
   17.4730  -11.7338    1.8667 C   0  0
   13.4849  -15.3147   -0.4189 C   0  0
   15.2295  -13.9520    1.7609 C   0  0
   15.7228  -12.0128   -1.2471 H   0  0
   22.1854  -12.4807    0.1493 C   0  0
   23.4153  -11.7421    0.0729 C   0  0
   23.3829  -10.4180   -0.0723 C   0  0
   22.0752   -9.7367   -0.1549 C   0  0
   20.8089  -10.5146   -0.0919 C   0  0
   22.0355   -8.5040   -0.2605 O   0  0
   22.2384  -13.7108    0.2818 O   0  0
   19.6070   -9.8448   -0.1705 O   0  0
   24.7044  -12.5278    0.1510 C   0  0
   25.9776  -11.6757    0.0581 C   0  0
   27.1711  -12.6613    0.0524 C   0  0
   30.0189  -12.9080   -0.0926 O   0  0
   13.3769  -10.9497   -1.2514 H   0  0
   12.5718  -10.9634    0.3364 H   0  0
   12.0260  -13.1719   -0.7608 H   0  0
   15.0379  -10.1093    0.2474 H   0  0
   14.6397  -11.3048    1.5050 H   0  0
   16.0272  -15.5866   -0.1378 H   0  0
   16.2728  -14.4495   -1.4854 H   0  0
   17.7396  -14.3251    1.2002 H   0  0
   18.4168  -15.0168   -0.2939 H   0  0
   17.5619  -10.7656   -0.0712 H   0  0
   19.6419  -13.0160    1.2635 H   0  0
   20.1466  -13.7715   -0.2675 H   0  0
   18.5833  -11.7808   -2.1853 H   0  0
   17.2186  -12.9220   -2.2342 H   0  0
   18.8902  -13.5313   -2.2784 H   0  0
   18.5086  -11.4935    2.1069 H   0  0
   17.2257  -12.7160    2.2695 H   0  0
   16.8151  -10.9847    2.3075 H   0  0
   14.3244  -15.9766   -0.2064 H   0  0
   13.1551  -15.4657   -1.4468 H   0  0
   12.6642  -15.5395    0.2624 H   0  0
   16.2015  -13.7790    2.2228 H   0  0
   14.9553  -15.0008    1.8747 H   0  0
   14.4806  -13.3263    2.2465 H   0  0
   24.3087   -9.8456   -0.1295 H   0  0
   19.0607  -10.2005   -0.9937 H   0  0
   24.7207  -13.0609    1.1015 H   0  0
   24.7152  -13.2457   -0.6691 H   0  0
   25.9707  -11.0885   -0.8602 H   0  0
   26.0461  -11.0076    0.9167 H   0  0
   27.1483  -13.2524    0.9679 H   0  0
   27.0821  -13.3223   -0.8098 H   0  0
   29.9076  -13.5238   -0.9357 H   0  0
  2  1  2  0
  3  2  2  0
  4  5  1  0
  4  7  1  0
  5  6  2  0
  6  9  1  0
  8  7  1  0
  8  9  1  0
  8 13  1  0
  9 10  1  0
 10 11  1  0
 11 12  1  0
 12 13  1  0
 12 14  1  0
 14 15  1  0
 12 16  1  0
 13 17  1  0
  6 18  1  0
  9 19  1  0
  8 20  1  0
 15 21  1  0
 15 25  2  0
 21 22  1  0
 22 23  2  0
 23 24  1  0
 24 25  1  0
 24 26  2  0
 21 27  2  0
 25 28  1  0
 22 29  1  0
 29 30  1  0
 30 31  1  0
 31  2  1  0
  2 32  1  0
  4 33  1  0
  4 34  1  0
  5 35  1  0
  7 36  1  0
  7 37  1  0
 10 38  1  0
 10 39  1  0
 11 40  1  0
 11 41  1  0
 13 42  1  0
 14 43  1  0
 14 44  1  0
 16 45  1  0
 16 46  1  0
 16 47  1  0
 17 48  1  0
 17 49  1  0
 17 50  1  0
 18 51  1  0
 18 52  1  0
 18 53  1  0
 19 54  1  0
 19 55  1  0
 19 56  1  0
 23 57  1  0
 28 58  1  0
 29 59  1  0
 29 60  1  0
 30 61  1  0
 30 62  1  0
 31 63  1  0
 31 64  1  0
 32 65  1  0
M  END
> <Name>
Molecule

> <Clean Energy>
41.0326

> <From>
www.bindingDB.org

> <BindingDB Reactant_set_id>
51323947

> <Ligand InChI>
InChI=1S/C24H34O6S/c1-15-7-5-9-19-16(2)23(3,10-11-24(15,19)4)14-18-21(26)17(13-20(25)22(18)27)8-6-12-31(28,29)30/h7,13,16,19,27H,5-6,8-12,14H2,1-4H3,(H,28,29,30)/t16-,19+,23-,24-/m1/s1

> <Ligand InChI Key>
VTKCOINQQNWHFB-NHBKVQAHSA-N

> <BindingDB MonomerID>
50535803

> <BindingDB Ligand Name>
CHEMBL4554678

> <Target Name>
Tyrosine-protein phosphatase non-receptor type 1

> <Target Source Organism According to Curator or DataSource>
Homo sapiens

> <IC50 (nM)>
1500

> <Curation/DataSource>
ChEMBL

> <Article DOI>
10.1021/acs.jnatprod.5b01128

> <BindingDB Entry DOI>
10.7270/Q2Z89GXC

> <PMID>
26960032

> <Authors>
Wubshet, SG; Tahtah, Y; Heskes, AM; Kongstad, KT; Pateraki, I; Hamberger, B; Møller, BL; Staerk, D

> <Institution>
University of Copenhagen

> <Link to Ligand in BindingDB>
http://www.bindingdb.org/bind/chemsearch/marvin/MolStructure.jsp?monomerid=50535803

> <Link to Ligand-Target Pair in BindingDB>
http://www.bindingdb.org/jsp/dbsearch/PrimarySearch_ki.jsp?energyterm=kJ/mole&tag=pol&polymerid=2622&target=Tyrosine-protein+phosphatase+non-receptor+type+1&column=ki&startPg=0&Increment=50&submit=Sea
rch
http://www.bindingdb.org/jsp/dbsearch/PrimarySearch_ki.jsp?energyterm=kJ/mole&tag=r21&monomerid=50535803&enzyme=Tyrosine-protein+phosphatase+non-receptor+type+1&column=ki&startPg=0&Increment=50&submit
=Search

> <PubChem CID of Ligand>
53354232

> <PubChem SID of Ligand>
440744385

> <KEGG ID of Ligand>
C15521

> <Number of Protein Chains in Target (bigger than 1 implies a multichain complex)>
1

> <BindingDB Target Chain Sequence>
MEMEKEFEQIDKSGSWAAIYQDIRHEASDFPCRVAKLPKNKNRNRYRDVSPFDHSRIKLHQEDNDYINASLIKMEEAQRSYILTQGPLPNTCGHFWEMVWEQKSRGVVMLNRVMEKGSLKCAQYWPQKEEKEMIFEDTNLKLTLISEDIKSYYTVRQLELENLTTQETREILHFHYTTWPDFGVPESPASFLNFLFKVRE
SGSLSPEHGPVVVHCSAGIGRSGTFCLADTCLLLMDKRKDPSSVDIKKVLLEMRKFRMGLIQTADQLRFSYLAVIEGAKFIMGDSSVQDQWKELSHEDLEPPPEHIPPPPRPPKRILEPHNGKCREFFPNHQWVKEETQEDKDCPIKEEKGSPLNAAPYGIESMSQDTEVRSRVVGGSLRGAQAASPAKGEPSLPEKDED
HALSYWKPFLVNMCVATVLTAGAYLCYRFLFNSNT

> <PDB ID(s) of Target Chain>
1BZJ,1G7G,1GFY,1JF7,1KAK,1KAV,1LQF,1NL9,1NNY,1NO6,1NZ7,1OEM,1OEO,1OES,1OET,1OEU,1OEV,1ONY,1ONZ,1PH0,1PXH,1PYN,1Q1M,1Q6J,1Q6M,1Q6N,1Q6P,1Q6S,1Q6T,1QXK,1SUG,1T48,1T49,1T4J,1WAX,1XBO,2AZR,2B07,2BGD,2BGE,
2CM2,2CM3,2CM7,2CM8,2CMA,2CMB,2CMC,2CNE,2CNF,2CNG,2CNH,2CNI,2F6T,2F6V,2F6W,2F6Y,2F6Z,2F70,2F71,2FJN,2H4G,2H4K,2HB1,2HNP,2HNQ,2QBP,2QBQ,2QBR,2QBS,2VEU,2VEV,2VEW,2VEX,2VEY,2ZMM,2ZN7,3A5J,3CWE,3D9C,3EAX,
3EB1,3EU0,3I7Z,3I80,3SME,4BJO,4I8N,4QBW,4Y14,5K9V,5K9W,5KA0,5KA1,5T19,6B90,6NTP,6W30,7KEY,7KLX,7LFO,7MN9,7MNA,8DU7,8G65,8G67,8G68,8G69,8G6A,8SKL

> <UniProt (SwissProt) Recommended Name of Target Chain>
Tyrosine-protein phosphatase non-receptor type 1

> <UniProt (SwissProt) Entry Name of Target Chain>
PTN1_HUMAN

> <UniProt (SwissProt) Primary ID of Target Chain>
P18031

> <UniProt (SwissProt) Secondary ID(s) of Target Chain>
Q5TGD8 Q9BQV9 Q9NQQ4

$$$$
6-Methoxy-N,9-bis[ (1-{[(2R,3S,4S,5R,6S)-3,4,5-tris(benzyloxy)-tetrahydro-6-methoxy-2H-pyran-2-yl]methyl}-1H-1,2,3-triazol-4-yl)methyl]-9H-purin-2-amine
  SciTegic10242319433D

163174  0  0  0  0            999 V2000
   -0.7951    1.0809   -0.0033 C   0  0
    0.0132    2.1460   -0.0027 N   0  0
    1.2528    1.6829   -0.0080 C   0  0
    2.4446    2.3876   -0.0065 C   0  0
    3.5820    1.6872   -0.0107 N   0  0
    3.6022    0.3437   -0.0165 C   0  0
    2.4209   -0.3446   -0.0178 N   0  0
    1.2404    0.3132   -0.0132 C   0  0
   -0.0728   -0.0434   -0.0088 N   0  0
    5.0111   -0.3728   -0.0138 N   0  0
    6.4073    0.3944   -0.0184 C   0  0
   10.0422   -0.8181    0.1236 N   0  0
    9.3990   -1.9174    0.1863 N   0  0
    8.1273   -1.7167    0.1535 N   0  0
    7.8893   -0.4109    0.0607 C   0  0
    9.1544    0.1838    0.0388 C   0  0
   11.6323   -0.6046    0.1002 C   0  0
   12.5718   -2.9345   -0.6057 O   0  0
   12.8024   -1.8227    0.3432 C   0  0  1  0  0  0
   14.4465   -1.3453    0.1942 C   0  0  1  0  0  0
   15.3641   -2.6849    0.4666 C   0  0  1  0  0  0
   14.9564   -3.8662   -0.4880 C   0  0  2  0  0  0
   13.4164   -4.1477   -0.3129 C   0  0  1  0  0  0
   13.1632   -4.6103    1.0257 O   0  0
   11.7980   -5.0641    1.1455 C   0  0
   14.8067   -0.7694   -1.1345 O   0  0
   14.2455    0.6006   -1.3866 C   0  0
   14.9550    1.8641   -0.7688 C   0  0
   14.1980    3.0156   -0.5521 C   0  0
   14.7788    4.1765   -0.0475 C   0  0
   16.1384    4.2027    0.2367 C   0  0
   16.9037    3.0613    0.0196 C   0  0
   16.3175    1.8975   -0.4795 C   0  0
   16.8331   -2.4606    0.2268 O   0  0
   17.4669   -1.3438    0.8957 C   0  0
   18.9637   -1.2451    0.4876 C   0  0
   19.6162   -0.0148    0.5274 C   0  0
   20.9553    0.0911    0.1596 C   0  0
   21.6585   -1.0377   -0.2450 C   0  0
   21.0142   -2.2695   -0.2848 C   0  0
   19.6716   -2.3722    0.0751 C   0  0
   15.7821   -5.1129   -0.1225 O   0  0
   15.3643   -6.3721   -0.7972 C   0  0
   16.1761   -7.6540   -0.4041 C   0  0
   17.5018   -7.5838    0.0172 C   0  0
   18.2008   -8.7466    0.3406 C   0  0
   17.5824   -9.9898    0.2547 C   0  0
   16.2582  -10.0669   -0.1594 C   0  0
   15.5646   -8.9050   -0.4906 C   0  0
   -0.7346   -1.4589   -0.0075 C   0  0
   -4.3854   -2.6099    0.1356 N   0  0
   -4.5297   -1.3417    0.1682 N   0  0
   -3.3861   -0.7448    0.1289 N   0  0
   -2.4138   -1.6554    0.0639 C   0  0
   -3.0764   -2.8817    0.0665 C   0  0
   -5.4979   -3.7649    0.1373 C   0  0
   -7.7685   -2.7024   -0.6647 O   0  0
   -7.1893   -3.6216    0.3417 C   0  0  1  0  0  0
   -8.0601   -5.0971    0.2343 C   0  0  1  0  0  0
   -9.6477   -4.7649    0.4677 C   0  0  1  0  0  0
  -10.1413   -3.6842   -0.5758 C   0  0  2  0  0  0
   -9.2365   -2.4096   -0.4440 C   0  0  1  0  0  0
   -9.4354   -1.8248    0.8579 O   0  0
   -8.7688   -0.5480    0.9441 C   0  0
   -7.9239   -5.8018   -1.0782 O   0  0
   -6.5854   -6.4098   -1.3337 C   0  0
   -6.2643   -7.8158   -0.7337 C   0  0
   -4.9314   -8.1623   -0.5161 C   0  0
   -4.5875   -9.4184   -0.0241 C   0  0
   -5.5811  -10.3516    0.2451 C   0  0
   -6.9135  -10.0161    0.0267 C   0  0
   -7.2556   -8.7548   -0.4597 C   0  0
  -10.5200   -5.9659    0.2607 O   0  0
  -10.2640   -7.1847    0.9777 C   0  0
  -11.3258   -8.2324    0.5424 C   0  0
  -11.0249   -9.5918    0.5643 C   0  0
  -11.9717  -10.5320    0.1641 C   0  0
  -13.2324  -10.1218   -0.2550 C   0  0
  -13.5404   -8.7663   -0.2771 C   0  0
  -12.5889   -7.8277    0.1151 C   0  0
  -11.5971   -3.2215   -0.3512 O   0  0
  -12.6495   -4.2479   -0.4839 C   0  0
  -14.1090   -3.7569   -0.2438 C   0  0
  -15.1395   -4.6948   -0.1967 C   0  0
  -16.4583   -4.2992    0.0103 C   0  0
  -16.7607   -2.9523    0.1700 C   0  0
  -15.7381   -2.0101    0.1240 C   0  0
  -14.4174   -2.4085   -0.0806 C   0  0
    2.4302    3.7952    0.0030 O   0  0
    3.7601    4.3203    0.0096 C   0  0
   -1.8843    1.1234    0.0004 H   0  0
    5.0282   -1.4427   -0.0085 H   0  0
    6.3841    1.0688    0.8376 H   0  0
    6.4289    0.9766   -0.9397 H   0  0
    9.3752    1.2488   -0.0329 H   0  0
   11.8331    0.1439    0.8668 H   0  0
   11.8518   -0.1870   -0.8824 H   0  0
   12.6640   -2.2158    1.3504 H   0  0
   14.6673   -0.6078    0.9659 H   0  0
   15.2219   -3.0034    1.4993 H   0  0
   15.1596   -3.5855   -1.5215 H   0  0
   13.1320   -4.9381   -1.0074 H   0  0
   11.6180   -5.4118    2.1627 H   0  0
   11.6238   -5.8821    0.4463 H   0  0
   11.1198   -4.2416    0.9179 H   0  0
   13.2230    0.5970   -1.0090 H   0  0
   14.2338    0.7426   -2.4673 H   0  0
   13.1326    3.0066   -0.7818 H   0  0
   14.1678    5.0627    0.1240 H   0  0
   16.6014    5.1094    0.6263 H   0  0
   17.9708    3.0762    0.2414 H   0  0
   16.9287    1.0101   -0.6439 H   0  0
   17.3975   -1.4852    1.9743 H   0  0
   16.9571   -0.4218    0.6161 H   0  0
   19.0733    0.8737    0.8497 H   0  0
   21.4527    1.0606    0.1889 H   0  0
   22.7078   -0.9580   -0.5291 H   0  0
   21.5614   -3.1584   -0.5988 H   0  0
   19.1722   -3.3402    0.0336 H   0  0
   15.4682   -6.2264   -1.8724 H   0  0
   14.3170   -6.5510   -0.5537 H   0  0
   17.9956   -6.6151    0.0946 H   0  0
   19.2399   -8.6808    0.6633 H   0  0
   18.1320  -10.8958    0.5100 H   0  0
   15.7626  -11.0355   -0.2251 H   0  0
   14.5286   -8.9743   -0.8223 H   0  0
   -0.3274   -1.9867    0.8549 H   0  0
   -0.4072   -1.9511   -0.9232 H   0  0
   -2.6180   -3.8696    0.0212 H   0  0
   -5.1845   -4.4433    0.9309 H   0  0
   -5.3812   -4.2564   -0.8286 H   0  0
   -7.3723   -3.1960    1.3283 H   0  0
   -7.7207   -5.7635    1.0274 H   0  0
   -9.7921   -4.3834    1.4784 H   0  0
  -10.0454   -4.0890   -1.5833 H   0  0
   -9.5559   -1.6865   -1.1944 H   0  0
   -8.9290   -0.1200    1.9336 H   0  0
   -9.1727    0.1251    0.1879 H   0  0
   -7.7003   -0.6834    0.7760 H   0  0
   -5.8403   -5.7177   -0.9412 H   0  0
   -6.4728   -6.4909   -2.4148 H   0  0
   -4.1464   -7.4384   -0.7346 H   0  0
   -3.5411   -9.6693    0.1495 H   0  0
   -5.3186  -11.3391    0.6246 H   0  0
   -7.6961  -10.7449    0.2374 H   0  0
   -8.3029   -8.5028   -0.6262 H   0  0
  -10.3400   -7.0053    2.0502 H   0  0
   -9.2651   -7.5503    0.7399 H   0  0
  -10.0411   -9.9227    0.8971 H   0  0
  -11.7232  -11.5932    0.1795 H   0  0
  -13.9743  -10.8581   -0.5642 H   0  0
  -14.5277   -8.4376   -0.6018 H   0  0
  -12.8347   -6.7662    0.0875 H   0  0
  -12.4393   -5.0375    0.2375 H   0  0
  -12.5952   -4.6539   -1.4940 H   0  0
  -14.9094   -5.7526   -0.3237 H   0  0
  -17.2524   -5.0449    0.0470 H   0  0
  -17.7916   -2.6364    0.3301 H   0  0
  -15.9710   -0.9526    0.2488 H   0  0
  -13.6237   -1.6620   -0.1128 H   0  0
    3.7212    5.4095    0.0169 H   0  0
    4.2893    3.9821   -0.8813 H   0  0
    4.2851    3.9700    0.8984 H   0  0
  1  2  4  0
  2  3  4  0
  3  4  4  0
  4  5  4  0
  5  6  4  0
  6  7  4  0
  7  8  4  0
  3  8  4  0
  8  9  4  0
  1  9  4  0
  6 10  1  0
 12 13  4  0
 13 14  4  0
 14 15  4  0
 15 16  4  0
 12 16  4  0
 19 18  1  0
 20 19  1  0
 20 21  1  0
 21 22  1  0
 22 23  1  0
 23 18  1  0
 24 25  1  0
 23 24  1  0
 27 28  1  0
 28 29  4  0
 29 30  4  0
 30 31  4  0
 31 32  4  0
 32 33  4  0
 28 33  4  0
 26 27  1  0
 20 26  1  0
 35 36  1  0
 36 37  4  0
 37 38  4  0
 38 39  4  0
 39 40  4  0
 40 41  4  0
 36 41  4  0
 34 35  1  0
 21 34  1  0
 43 44  1  0
 44 45  4  0
 45 46  4  0
 46 47  4  0
 47 48  4  0
 48 49  4  0
 44 49  4  0
 42 43  1  0
 22 42  1  0
 19 17  1  0
 12 17  1  0
 11 15  1  0
 10 11  1  0
 51 52  4  0
 52 53  4  0
 53 54  4  0
 54 55  4  0
 51 55  4  0
 58 57  1  0
 59 58  1  0
 59 60  1  0
 60 61  1  0
 61 62  1  0
 62 57  1  0
 63 64  1  0
 62 63  1  0
 66 67  1  0
 67 68  4  0
 68 69  4  0
 69 70  4  0
 70 71  4  0
 71 72  4  0
 67 72  4  0
 65 66  1  0
 59 65  1  0
 74 75  1  0
 75 76  4  0
 76 77  4  0
 77 78  4  0
 78 79  4  0
 79 80  4  0
 75 80  4  0
 73 74  1  0
 60 73  1  0
 82 83  1  0
 83 84  4  0
 84 85  4  0
 85 86  4  0
 86 87  4  0
 87 88  4  0
 83 88  4  0
 81 82  1  0
 61 81  1  0
 58 56  1  0
 51 56  1  0
 50 54  1  0
  9 50  1  0
 89 90  1  0
  4 89  1  0
  1 91  1  0
 10 92  1  0
 11 93  1  0
 11 94  1  0
 16 95  1  0
 17 96  1  0
 17 97  1  0
 19 98  1  0
 20 99  1  0
 21100  1  0
 22101  1  0
 23102  1  0
 25103  1  0
 25104  1  0
 25105  1  0
 27106  1  0
 27107  1  0
 29108  1  0
 30109  1  0
 31110  1  0
 32111  1  0
 33112  1  0
 35113  1  0
 35114  1  0
 37115  1  0
 38116  1  0
 39117  1  0
 40118  1  0
 41119  1  0
 43120  1  0
 43121  1  0
 45122  1  0
 46123  1  0
 47124  1  0
 48125  1  0
 49126  1  0
 50127  1  0
 50128  1  0
 55129  1  0
 56130  1  0
 56131  1  0
 58132  1  0
 59133  1  0
 60134  1  0
 61135  1  0
 62136  1  0
 64137  1  0
 64138  1  0
 64139  1  0
 66140  1  0
 66141  1  0
 68142  1  0
 69143  1  0
 70144  1  0
 71145  1  0
 72146  1  0
 74147  1  0
 74148  1  0
 76149  1  0
 77150  1  0
 78151  1  0
 79152  1  0
 80153  1  0
 82154  1  0
 82155  1  0
 84156  1  0
 85157  1  0
 86158  1  0
 87159  1  0
 88160  1  0
 90161  1  0
 90162  1  0
 90163  1  0
M  END
> <Name>
6-Methoxy-N,9-bis[ (1-{[(2R,3S,4S,5R,6S)-3,4,5-tris(benzyloxy)-tetrahydro-6-methoxy-2H-pyran-2-yl]methyl}-1H-1,2,3-triazol-4-yl)methyl]-9H-purin-2-amine

> <Clean Energy>
155.417

> <From>
www.bindingDB.org

> <BindingDB Reactant_set_id>
255780

> <Ligand InChI>
InChI=1S/C68H73N11O11/c1-80-65-57-64(77(46-70-57)35-54-37-79(76-74-54)39-56-59(84-41-48-24-12-5-13-25-48)61(86-43-50-28-16-7-17-29-50)63(67(82-3)90-56)88-45-52-32-20-9-21-33-52)71-68(72-65)69-34-53-36
-78(75-73-53)38-55-58(83-40-47-22-10-4-11-23-47)60(85-42-49-26-14-6-15-27-49)62(66(81-2)89-55)87-44-51-30-18-8-19-31-51/h4-33,36-37,46,55-56,58-63,66-67H,34-35,38-45H2,1-3H3,(H,69,71,72)/t55-,56-,58+,
59+,60+,61+,62-,63-,66+,67+/m1/s1

> <Ligand InChI Key>
VKFAGBJIKPAJGL-HYCGMYDISA-N

> <BindingDB MonomerID>
125938

> <BindingDB Ligand Name>
6-Methoxy-N,9-bis[ (1-{[(2R,3S,4S,5R,6S)-3,4,5-tris(benzyloxy)-tetrahydro-6-methoxy-2H-pyran-2- yl]methyl}-1H-1,2,3-triazol-4-yl)methyl]-9H-purin-2-amine (16)

> <Target Name>
Tyrosine-protein phosphatase non-receptor type 1

> <Target Source Organism According to Curator or DataSource>
Homo sapiens

> <IC50 (nM)>
1500

> <pH>
6.5

> <Curation/DataSource>
Curated from the literature by BindingDB

> <Article DOI>
10.1002/cbdv.201000242

> <BindingDB Entry DOI>
10.7270/Q2668BVX

> <PMID>
22083916

> <PubChem AID>
aid1800548

> <Authors>
Luo, L; He, XP; Shen, Q; Li, JY; Shi, XX; Xie, J; Li, J; Chen, GR

> <Institution>
East China University of Science and Technology

> <Link to Ligand in BindingDB>
http://www.bindingdb.org/bind/chemsearch/marvin/MolStructure.jsp?monomerid=125938

> <Link to Ligand-Target Pair in BindingDB>
http://www.bindingdb.org/jsp/dbsearch/PrimarySearch_ki.jsp?energyterm=kJ/mole&tag=pol&polymerid=2622&target=Tyrosine-protein+phosphatase+non-receptor+type+1&column=ki&startPg=0&Increment=50&submit=Sea
rch
http://www.bindingdb.org/jsp/dbsearch/PrimarySearch_ki.jsp?energyterm=kJ/mole&tag=r21&monomerid=125938&enzyme=Tyrosine-protein+phosphatase+non-receptor+type+1&column=ki&startPg=0&Increment=50&submit=S
earch

> <PubChem CID of Ligand>
86766493

> <PubChem SID of Ligand>
225152300

> <Number of Protein Chains in Target (bigger than 1 implies a multichain complex)>
1

> <BindingDB Target Chain Sequence>
MEMEKEFEQIDKSGSWAAIYQDIRHEASDFPCRVAKLPKNKNRNRYRDVSPFDHSRIKLHQEDNDYINASLIKMEEAQRSYILTQGPLPNTCGHFWEMVWEQKSRGVVMLNRVMEKGSLKCAQYWPQKEEKEMIFEDTNLKLTLISEDIKSYYTVRQLELENLTTQETREILHFHYTTWPDFGVPESPASFLNFLFKVRE
SGSLSPEHGPVVVHCSAGIGRSGTFCLADTCLLLMDKRKDPSSVDIKKVLLEMRKFRMGLIQTADQLRFSYLAVIEGAKFIMGDSSVQDQWKELSHEDLEPPPEHIPPPPRPPKRILEPHNGKCREFFPNHQWVKEETQEDKDCPIKEEKGSPLNAAPYGIESMSQDTEVRSRVVGGSLRGAQAASPAKGEPSLPEKDED
HALSYWKPFLVNMCVATVLTAGAYLCYRFLFNSNT

> <PDB ID(s) of Target Chain>
1BZJ,1G7G,1GFY,1JF7,1KAK,1KAV,1LQF,1NL9,1NNY,1NO6,1NZ7,1OEM,1OEO,1OES,1OET,1OEU,1OEV,1ONY,1ONZ,1PH0,1PXH,1PYN,1Q1M,1Q6J,1Q6M,1Q6N,1Q6P,1Q6S,1Q6T,1QXK,1SUG,1T48,1T49,1T4J,1WAX,1XBO,2AZR,2B07,2BGD,2BGE,
2CM2,2CM3,2CM7,2CM8,2CMA,2CMB,2CMC,2CNE,2CNF,2CNG,2CNH,2CNI,2F6T,2F6V,2F6W,2F6Y,2F6Z,2F70,2F71,2FJN,2H4G,2H4K,2HB1,2HNP,2HNQ,2QBP,2QBQ,2QBR,2QBS,2VEU,2VEV,2VEW,2VEX,2VEY,2ZMM,2ZN7,3A5J,3CWE,3D9C,3EAX,
3EB1,3EU0,3I7Z,3I80,3SME,4BJO,4I8N,4QBW,4Y14,5K9V,5K9W,5KA0,5KA1,5T19,6B90,6NTP,6W30,7KEY,7KLX,7LFO,7MN9,7MNA,8DU7,8G65,8G67,8G68,8G69,8G6A,8SKL

> <UniProt (SwissProt) Recommended Name of Target Chain>
Tyrosine-protein phosphatase non-receptor type 1

> <UniProt (SwissProt) Entry Name of Target Chain>
PTN1_HUMAN

> <UniProt (SwissProt) Primary ID of Target Chain>
P18031

> <UniProt (SwissProt) Secondary ID(s) of Target Chain>
Q5TGD8 Q9BQV9 Q9NQQ4

$$$$
Molecule
  SciTegic10242319433D

 67 69  0  0  0  0            999 V2000
    0.9907   -9.5491    0.0228 O   0  0
    0.2605   -6.4935    0.0214 O   0  0
   -1.2201   -8.4727    0.3809 C   0  0
   -1.0982   -7.1781    0.1460 C   0  0
   -3.6159   -8.5671    0.2562 C   0  0
   -2.4678   -9.2029    0.4494 C   0  0
    1.6669   -7.2161    0.0133 C   0  0
    1.9099   -8.5644    0.0183 C   0  0
    3.2124   -9.0879    0.0077 C   0  0
    4.2798   -8.3421   -0.0316 C   0  0
    4.1874   -6.8911   -0.0847 C   0  0
    2.9357   -6.3005   -0.0544 C   0  0
    2.6755   -4.7480   -0.1305 C   0  0
    3.6065   -3.8375    0.7405 C   0  0
    3.8631   -2.5000   -0.0077 C   0  0
    5.0614   -1.7617    0.6405 C   0  0
    5.4118   -0.5015   -0.1813 C   0  0
    5.5036   -8.9906   -0.0513 O   0  0
   -2.4146  -10.5861    0.6852 O   0  0
   -3.7147  -11.1782    0.6762 C   0  0
   -3.5601   -7.1366   -0.0052 C   0  0
   -2.4137   -6.4787   -0.0377 C   0  0
   -2.7070   -5.0967   -0.2672 C   0  0
   -4.0860   -4.9219   -0.3259 O   0  0
   -4.7412   -6.2107   -0.3124 C   0  0  2  0  0  0
   -5.9524   -6.3408    0.6526 C   0  0
   -7.0448   -5.3292    0.2018 C   0  0
   -8.3664   -5.5826    0.9409 C   0  0
   -9.4495   -4.6602    0.3454 C   0  0
   -1.8756   -4.1840   -0.2976 O   0  0
   -5.2458   -6.4650   -1.6825 O   0  0
   -5.8550   -7.7762   -1.9051 C   0  0
    5.5601   -6.2102   -0.2152 C   0  0
    6.7206   -6.9680   -0.0907 O   0  0
    5.7028   -5.0273   -0.5156 O   0  0
    0.3905   -9.4644    0.8802 H   0  0
   -0.3020   -9.0393    0.5365 H   0  0
   -4.5675   -9.0974    0.2921 H   0  0
    3.3366  -10.1705    0.0336 H   0  0
    2.7942   -4.4435   -1.1703 H   0  0
    1.6480   -4.5691    0.1860 H   0  0
    3.1244   -3.6330    1.6965 H   0  0
    4.5551   -4.3459    0.9128 H   0  0
    4.0882   -2.7074   -1.0538 H   0  0
    2.9739   -1.8728    0.0558 H   0  0
    5.9243   -2.4272    0.6663 H   0  0
    4.7978   -1.4682    1.6566 H   0  0
    6.2550    0.0116    0.2811 H   0  0
    4.5509    0.1666   -0.2078 H   0  0
    5.6771   -0.7921   -1.1978 H   0  0
    5.6032   -9.5775    0.8136 H   0  0
   -3.6283  -12.2487    0.8625 H   0  0
   -4.1819  -11.0155   -0.2951 H   0  0
   -4.3272  -10.7229    1.4545 H   0  0
   -6.3495   -7.3550    0.6112 H   0  0
   -5.6381   -6.1144    1.6714 H   0  0
   -6.7040   -4.3166    0.4179 H   0  0
   -7.2096   -5.4366   -0.8703 H   0  0
   -8.6625   -6.6242    0.8162 H   0  0
   -8.2413   -5.3644    2.0015 H   0  0
  -10.3949   -4.8291    0.8610 H   0  0
   -9.5707   -4.8790   -0.7155 H   0  0
   -9.1495   -3.6196    0.4694 H   0  0
   -6.1878   -7.8517   -2.9403 H   0  0
   -6.7095   -7.8981   -1.2395 H   0  0
   -5.1222   -8.5571   -1.7017 H   0  0
    6.7463   -7.4162    0.8585 H   0  0
  4  2  1  0
 16 17  1  0
  7  8  2  0
 10 18  1  0
  3  4  2  0
  6 19  1  0
  8  9  1  0
 19 20  1  0
 21 22  2  0
  4 22  1  0
  9 10  2  0
  1  8  1  0
 10 11  1  0
 21  5  1  0
 22 23  1  0
 23 24  1  0
 24 25  1  0
 25 21  1  0
 11 12  2  0
 25 26  1  0
 12  7  1  0
 26 27  1  0
  7  2  1  0
 27 28  1  0
 12 13  1  0
 28 29  1  0
  5  6  2  0
 23 30  2  0
 13 14  1  0
 25 31  1  0
  6  3  1  0
 31 32  1  0
 14 15  1  0
 11 33  1  0
 33 34  1  0
 15 16  1  0
 33 35  2  0
  1 36  1  0
  3 37  1  0
  5 38  1  0
  9 39  1  0
 13 40  1  0
 13 41  1  0
 14 42  1  0
 14 43  1  0
 15 44  1  0
 15 45  1  0
 16 46  1  0
 16 47  1  0
 17 48  1  0
 17 49  1  0
 17 50  1  0
 18 51  1  0
 20 52  1  0
 20 53  1  0
 20 54  1  0
 26 55  1  0
 26 56  1  0
 27 57  1  0
 27 58  1  0
 28 59  1  0
 28 60  1  0
 29 61  1  0
 29 62  1  0
 29 63  1  0
 32 64  1  0
 32 65  1  0
 32 66  1  0
 34 67  1  0
M  END
> <Name>
Molecule

> <Clean Energy>
82.6088

> <From>
www.bindingDB.org

> <BindingDB Reactant_set_id>
51097120

> <Ligand InChI>
InChI=1S/C26H32O9/c1-5-7-9-10-16-21(24(29)30)18(27)14-19(28)23(16)34-20-13-15(32-3)12-17-22(20)25(31)35-26(17,33-4)11-8-6-2/h12-14,27-28H,5-11H2,1-4H3,(H,29,30)

> <Ligand InChI Key>
RVLAGCKOEKBSNY-UHFFFAOYSA-N

> <BindingDB MonomerID>
50294527

> <BindingDB Ligand Name>
3-(1-butyl-1,6-dimethoxy-3-oxo-1,3-dihydroisobenzofuran-4-yloxy)-4,6-dihydroxy-2-pentylbenzoic acid::CHEMBL558886

> <Target Name>
Tyrosine-protein phosphatase non-receptor type 1

> <Target Source Organism According to Curator or DataSource>
Homo sapiens

> <IC50 (nM)>
1500

> <Curation/DataSource>
ChEMBL

> <Article DOI>
10.1021/acs.jnatprod.8b00227

> <BindingDB Entry DOI>
10.7270/Q2X92DTK

> <PMID>
29878768

> <Authors>
Kim, TK; Kim, JE; Youn, UJ; Han, SJ; Kim, IC; Cho, CG; Yim, JH

> <Institution>
Korea Polar Research Institute

> <Link to Ligand in BindingDB>
http://www.bindingdb.org/bind/chemsearch/marvin/MolStructure.jsp?monomerid=50294527

> <Link to Ligand-Target Pair in BindingDB>
http://www.bindingdb.org/jsp/dbsearch/PrimarySearch_ki.jsp?energyterm=kJ/mole&tag=pol&polymerid=2622&target=Tyrosine-protein+phosphatase+non-receptor+type+1&column=ki&startPg=0&Increment=50&submit=Sea
rch
http://www.bindingdb.org/jsp/dbsearch/PrimarySearch_ki.jsp?energyterm=kJ/mole&tag=r21&monomerid=50294527&enzyme=Tyrosine-protein+phosphatase+non-receptor+type+1&column=ki&startPg=0&Increment=50&submit
=Search

> <PubChem CID of Ligand>
44188090

> <PubChem SID of Ligand>
104136058

> <ChEMBL ID of Ligand>
CHEMBL558886

> <ZINC ID of Ligand>
ZINC43075535

> <Number of Protein Chains in Target (bigger than 1 implies a multichain complex)>
1

> <BindingDB Target Chain Sequence>
MEMEKEFEQIDKSGSWAAIYQDIRHEASDFPCRVAKLPKNKNRNRYRDVSPFDHSRIKLHQEDNDYINASLIKMEEAQRSYILTQGPLPNTCGHFWEMVWEQKSRGVVMLNRVMEKGSLKCAQYWPQKEEKEMIFEDTNLKLTLISEDIKSYYTVRQLELENLTTQETREILHFHYTTWPDFGVPESPASFLNFLFKVRE
SGSLSPEHGPVVVHCSAGIGRSGTFCLADTCLLLMDKRKDPSSVDIKKVLLEMRKFRMGLIQTADQLRFSYLAVIEGAKFIMGDSSVQDQWKELSHEDLEPPPEHIPPPPRPPKRILEPHNGKCREFFPNHQWVKEETQEDKDCPIKEEKGSPLNAAPYGIESMSQDTEVRSRVVGGSLRGAQAASPAKGEPSLPEKDED
HALSYWKPFLVNMCVATVLTAGAYLCYRFLFNSNT

> <PDB ID(s) of Target Chain>
1BZJ,1G7G,1GFY,1JF7,1KAK,1KAV,1LQF,1NL9,1NNY,1NO6,1NZ7,1OEM,1OEO,1OES,1OET,1OEU,1OEV,1ONY,1ONZ,1PH0,1PXH,1PYN,1Q1M,1Q6J,1Q6M,1Q6N,1Q6P,1Q6S,1Q6T,1QXK,1SUG,1T48,1T49,1T4J,1WAX,1XBO,2AZR,2B07,2BGD,2BGE,
2CM2,2CM3,2CM7,2CM8,2CMA,2CMB,2CMC,2CNE,2CNF,2CNG,2CNH,2CNI,2F6T,2F6V,2F6W,2F6Y,2F6Z,2F70,2F71,2FJN,2H4G,2H4K,2HB1,2HNP,2HNQ,2QBP,2QBQ,2QBR,2QBS,2VEU,2VEV,2VEW,2VEX,2VEY,2ZMM,2ZN7,3A5J,3CWE,3D9C,3EAX,
3EB1,3EU0,3I7Z,3I80,3SME,4BJO,4I8N,4QBW,4Y14,5K9V,5K9W,5KA0,5KA1,5T19,6B90,6NTP,6W30,7KEY,7KLX,7LFO,7MN9,7MNA,8DU7,8G65,8G67,8G68,8G69,8G6A,8SKL

> <UniProt (SwissProt) Recommended Name of Target Chain>
Tyrosine-protein phosphatase non-receptor type 1

> <UniProt (SwissProt) Entry Name of Target Chain>
PTN1_HUMAN

> <UniProt (SwissProt) Primary ID of Target Chain>
P18031

> <UniProt (SwissProt) Secondary ID(s) of Target Chain>
Q5TGD8 Q9BQV9 Q9NQQ4

$$$$
Molecule
  SciTegic10242319433D

 63 64  0  0  0  0            999 V2000
   12.4215   -0.3548    0.0323 C   0  0
   10.1674   -0.1234   -0.0210 C   0  0
   11.7782   -1.6521   -0.0611 C   0  0
   11.4692    0.5670    0.0553 C   0  0
   10.4021   -1.4884   -0.0997 O   0  0
    8.9595    0.4757   -0.0096 C   0  0
   12.3716   -2.7368   -0.0969 O   0  0
   -7.9175   -0.1937    0.0028 C   0  0
   -9.3996   -1.7715   -0.0127 O   0  0
   -8.1182   -1.5681   -0.0091 C   0  0
   -9.1581    0.4100    0.0062 C   0  0
  -10.0582   -0.6504   -0.0042 C   0  0
   -2.8061   -0.2480    0.0113 C   0  0
    2.3591   -0.1190    0.0091 C   0  0
   -4.0073    0.3639    0.0252 C   0  0
    1.1510    0.4891    0.0593 C   0  0
   11.6729    1.9401    0.1398 O   0  0
   13.9055   -0.1063    0.0927 C   0  0
   -5.3353   -0.4335   -0.0029 C   0  0
   -0.1806   -0.3300    0.0114 C   0  0
    7.6346   -0.3238   -0.0889 C   0  0  2  0  0  0
   -6.5674    0.5389    0.0125 C   0  0
    4.9921   -0.2165   -0.0520 C   0  0
   -1.4849    0.5845    0.0443 C   0  0
    3.6897    0.7051    0.0594 C   0  0
   -2.7430   -1.7516   -0.0338 C   0  0
    2.4247   -1.6190   -0.0966 C   0  0
    6.3519    0.6167    0.0222 C   0  0
    7.6072   -1.3657    1.0487 C   0  0
    8.9134    1.5626    0.0579 H   0  0
   -7.3427   -2.3341   -0.0144 H   0  0
   -9.3822    1.4766    0.0150 H   0  0
  -11.1442   -0.5565   -0.0051 H   0  0
   -4.0452    1.4528    0.0572 H   0  0
    1.1049    1.5755    0.1349 H   0  0
   11.2590    2.4084   -0.7040 H   0  0
   14.0925    0.9655    0.1591 H   0  0
   14.3776   -0.5019   -0.8066 H   0  0
   14.3221   -0.6022    0.9694 H   0  0
   -5.3694   -1.0395   -0.9083 H   0  0
   -5.3812   -1.0827    0.8715 H   0  0
   -0.1928   -0.9167   -0.9072 H   0  0
   -0.2059   -0.9995    0.8711 H   0  0
    7.6006   -0.8488   -1.0436 H   0  0
   -6.5144    1.1788   -0.8683 H   0  0
   -6.5129    1.1525    0.9118 H   0  0
    4.9615   -0.7478   -1.0033 H   0  0
    4.9800   -0.9357    0.7669 H   0  0
   -1.4683    1.2466   -0.8215 H   0  0
   -1.4705    1.1794    0.9575 H   0  0
    3.6923    1.4137   -0.7689 H   0  0
    3.7273    1.2488    1.0034 H   0  0
   -3.7543   -2.1578   -0.0521 H   0  0
   -2.2198   -2.1204    0.8484 H   0  0
   -2.2092   -2.0666   -0.9305 H   0  0
    1.4141   -2.0266   -0.1195 H   0  0
    2.9588   -2.0213    0.7642 H   0  0
    2.9487   -1.8967   -1.0111 H   0  0
    6.3699    1.3347   -0.7977 H   0  0
    6.3870    1.1489    0.9728 H   0  0
    6.6777   -1.9330    1.0002 H   0  0
    7.6715   -0.8563    2.0103 H   0  0
    8.4528   -2.0449    0.9406 H   0  0
  2  4  1  0
  3  1  1  0
  4  1  2  0
  5  3  1  0
  6  2  2  0
  7  3  2  0
  8 22  1  0
  9 10  4  0
 10  8  4  0
 11  8  4  0
 12 11  4  0
 13 24  1  0
 14 25  1  0
 15 13  2  0
 16 14  2  0
 17  4  1  0
 18  1  1  0
 19 15  1  0
 20 16  1  0
 21  6  1  0
 22 19  1  0
 23 28  1  0
 24 20  1  0
 25 23  1  0
 26 13  1  0
 27 14  1  0
 21 28  1  0
 21 29  1  0
  2  5  1  0
 12  9  4  0
  6 30  1  0
 10 31  1  0
 11 32  1  0
 12 33  1  0
 15 34  1  0
 16 35  1  0
 17 36  1  0
 18 37  1  0
 18 38  1  0
 18 39  1  0
 19 40  1  0
 19 41  1  0
 20 42  1  0
 20 43  1  0
 21 44  1  0
 22 45  1  0
 22 46  1  0
 23 47  1  0
 23 48  1  0
 24 49  1  0
 24 50  1  0
 25 51  1  0
 25 52  1  0
 26 53  1  0
 26 54  1  0
 26 55  1  0
 27 56  1  0
 27 57  1  0
 27 58  1  0
 28 59  1  0
 28 60  1  0
 29 61  1  0
 29 62  1  0
 29 63  1  0
M  END
> <Name>
Molecule

> <Clean Energy>
46.7584

> <From>
www.bindingDB.org

> <BindingDB Reactant_set_id>
50688453

> <Ligand InChI>
InChI=1S/C25H34O4/c1-18(8-5-9-19(2)11-7-13-22-14-15-28-17-22)10-6-12-20(3)16-23-24(26)21(4)25(27)29-23/h8,11,14-17,20,26H,5-7,9-10,12-13H2,1-4H3/b18-8+,19-11+,23-16-/t20-/m0/s1

> <Ligand InChI Key>
HPVSJNGZYYDDMU-CHVWLSOJSA-N

> <BindingDB MonomerID>
50232636

> <BindingDB Ligand Name>
(7E,12E,20Z,18S)-Variabilin::7E,12E,20Z-Variabilin::CHEMBL464276

> <Target Name>
Tyrosine-protein phosphatase non-receptor type 1

> <Target Source Organism According to Curator or DataSource>
Homo sapiens

> <IC50 (nM)>
1500

> <Curation/DataSource>
ChEMBL

> <Article DOI>
10.1016/j.bmcl.2017.01.071

> <BindingDB Entry DOI>
10.7270/Q2ST7S23

> <PMID>
28189419

> <Authors>
Abdjul, DB; Yamazaki, H; Kanno, SI; Wewengkang, DS; Rotinsulu, H; Sumilat, DA; Ukai, K; Kapojos, MM; Namikoshi, M

> <Institution>
Tohoku Medical and Pharmaceutical University

> <Link to Ligand in BindingDB>
http://www.bindingdb.org/bind/chemsearch/marvin/MolStructure.jsp?monomerid=50232636

> <Link to Ligand-Target Pair in BindingDB>
http://www.bindingdb.org/jsp/dbsearch/PrimarySearch_ki.jsp?energyterm=kJ/mole&tag=pol&polymerid=2622&target=Tyrosine-protein+phosphatase+non-receptor+type+1&column=ki&startPg=0&Increment=50&submit=Sea
rch
http://www.bindingdb.org/jsp/dbsearch/PrimarySearch_ki.jsp?energyterm=kJ/mole&tag=r21&monomerid=50232636&enzyme=Tyrosine-protein+phosphatase+non-receptor+type+1&column=ki&startPg=0&Increment=50&submit
=Search

> <PubChem CID of Ligand>
54682873

> <PubChem SID of Ligand>
384578153

> <ChEMBL ID of Ligand>
CHEMBL464276

> <Number of Protein Chains in Target (bigger than 1 implies a multichain complex)>
1

> <BindingDB Target Chain Sequence>
MEMEKEFEQIDKSGSWAAIYQDIRHEASDFPCRVAKLPKNKNRNRYRDVSPFDHSRIKLHQEDNDYINASLIKMEEAQRSYILTQGPLPNTCGHFWEMVWEQKSRGVVMLNRVMEKGSLKCAQYWPQKEEKEMIFEDTNLKLTLISEDIKSYYTVRQLELENLTTQETREILHFHYTTWPDFGVPESPASFLNFLFKVRE
SGSLSPEHGPVVVHCSAGIGRSGTFCLADTCLLLMDKRKDPSSVDIKKVLLEMRKFRMGLIQTADQLRFSYLAVIEGAKFIMGDSSVQDQWKELSHEDLEPPPEHIPPPPRPPKRILEPHNGKCREFFPNHQWVKEETQEDKDCPIKEEKGSPLNAAPYGIESMSQDTEVRSRVVGGSLRGAQAASPAKGEPSLPEKDED
HALSYWKPFLVNMCVATVLTAGAYLCYRFLFNSNT

> <PDB ID(s) of Target Chain>
1BZJ,1G7G,1GFY,1JF7,1KAK,1KAV,1LQF,1NL9,1NNY,1NO6,1NZ7,1OEM,1OEO,1OES,1OET,1OEU,1OEV,1ONY,1ONZ,1PH0,1PXH,1PYN,1Q1M,1Q6J,1Q6M,1Q6N,1Q6P,1Q6S,1Q6T,1QXK,1SUG,1T48,1T49,1T4J,1WAX,1XBO,2AZR,2B07,2BGD,2BGE,
2CM2,2CM3,2CM7,2CM8,2CMA,2CMB,2CMC,2CNE,2CNF,2CNG,2CNH,2CNI,2F6T,2F6V,2F6W,2F6Y,2F6Z,2F70,2F71,2FJN,2H4G,2H4K,2HB1,2HNP,2HNQ,2QBP,2QBQ,2QBR,2QBS,2VEU,2VEV,2VEW,2VEX,2VEY,2ZMM,2ZN7,3A5J,3CWE,3D9C,3EAX,
3EB1,3EU0,3I7Z,3I80,3SME,4BJO,4I8N,4QBW,4Y14,5K9V,5K9W,5KA0,5KA1,5T19,6B90,6NTP,6W30,7KEY,7KLX,7LFO,7MN9,7MNA,8DU7,8G65,8G67,8G68,8G69,8G6A,8SKL

> <UniProt (SwissProt) Recommended Name of Target Chain>
Tyrosine-protein phosphatase non-receptor type 1

> <UniProt (SwissProt) Entry Name of Target Chain>
PTN1_HUMAN

> <UniProt (SwissProt) Primary ID of Target Chain>
P18031

> <UniProt (SwissProt) Secondary ID(s) of Target Chain>
Q5TGD8 Q9BQV9 Q9NQQ4

$$$$
Molecule
  SciTegic10242319433D

 88 92  0  0  0  0            999 V2000
   16.1486  -15.3609    0.4456 O   0  0
   17.2000  -16.0152   -0.4212 C   0  0  2  0  0  0
   17.1383  -17.4094    0.2881 C   0  0  1  0  0  0
   15.5736  -17.6713    0.4420 C   0  0  1  0  0  0
   15.0807  -16.1669    0.0474 C   0  0  1  0  0  0
   18.7976  -13.9260   -0.1836 C   0  0
   17.8136  -12.7300   -0.2549 C   0  0
   16.4506  -12.8405   -0.5149 C   0  0
   15.6388  -11.7125   -0.5267 C   0  0
   16.1613  -10.4618   -0.2790 C   0  0
   17.5140  -10.3202   -0.0360 C   0  0
   18.3336  -11.4514   -0.0258 C   0  0
   19.9795  -13.6128    0.0047 O   0  0
   18.5305  -15.4058   -0.2182 O   0  0
   18.0008   -9.0229    0.1812 O   0  0
   19.4082   -9.0069    0.3769 C   0  0
   15.3218   -9.3537   -0.2915 O   0  0
   13.8246  -11.8068   -0.9003 Br  0  0
   19.4541  -18.4364    0.0919 C   0  0
   20.4094  -19.6083    0.0005 C   0  0
   19.9392  -20.9128   -0.0785 C   0  0
   20.8399  -21.9732   -0.1248 C   0  0
   22.2141  -21.7547   -0.0945 C   0  0
   22.7045  -20.4410   -0.0185 C   0  0
   21.7857  -19.3909    0.0301 C   0  0
   19.9345  -17.3111    0.2452 O   0  0
   18.0109  -18.6317    0.0614 O   0  0
   24.1109  -20.0559    0.0222 O   0  0
   25.1134  -21.0896   -0.0162 C   0  0
   23.0311  -22.8934   -0.1408 O   0  0
   20.1942  -23.7588   -0.2203 Br  0  0
   13.4731  -19.0230   -0.1377 C   0  0
   12.6845  -20.2288   -0.3393 C   0  0
   13.1987  -21.5121   -0.3542 C   0  0
   12.3064  -22.5852   -0.3721 C   0  0
   10.9244  -22.3918   -0.3853 C   0  0
   10.4076  -21.0883   -0.3932 C   0  0
   11.3073  -20.0391   -0.3561 C   0  0
   12.7970  -18.1542    0.3710 O   0  0
   14.9257  -18.8698   -0.3002 O   0  0
    9.0024  -20.7054   -0.4036 O   0  0
    8.0045  -21.7331   -0.3976 C   0  0
   10.1202  -23.5313   -0.3808 O   0  0
   12.9747  -24.3588   -0.3274 Br  0  0
   13.6339  -15.7024    0.5379 C   0  0
   13.2150  -14.3979    0.1098 O   0  0
   11.7468  -14.0893   -0.0146 C   0  0
   10.5392  -14.9718    0.2103 C   0  0
   10.5499  -16.2394    0.7760 C   0  0
    9.3603  -16.9398    0.9285 C   0  0
    8.1474  -16.4048    0.5143 C   0  0
    8.1159  -15.1233   -0.0527 C   0  0
    9.3178  -14.4354   -0.1866 C   0  0
   11.4529  -12.9538   -0.3985 O   0  0
    6.9326  -14.4199   -0.5148 O   0  0
    5.6580  -15.0683   -0.3833 C   0  0
    7.0190  -17.2023    0.7091 O   0  0
    9.3631  -18.6396    1.7490 Br  0  0
   16.9124  -16.0623   -1.4715 H   0  0
   17.4101  -17.1406    1.3089 H   0  0
   15.3737  -17.8060    1.5050 H   0  0
   15.0599  -16.1290   -1.0418 H   0  0
   16.0159  -13.8207   -0.7109 H   0  0
   19.4006  -11.3355    0.1646 H   0  0
   19.7410   -7.9821    0.5413 H   0  0
   19.9030   -9.4118   -0.5060 H   0  0
   19.6617   -9.6144    1.2457 H   0  0
   14.8745   -9.2635   -1.2372 H   0  0
   18.8667  -21.1059   -0.1042 H   0  0
   22.1567  -18.3679    0.0933 H   0  0
   26.1043  -20.6371    0.0219 H   0  0
   25.0111  -21.6617   -0.9383 H   0  0
   24.9846  -21.7533    0.8389 H   0  0
   22.8212  -23.5091    0.6835 H   0  0
   14.2754  -21.6818   -0.3519 H   0  0
   10.9205  -19.0202   -0.3393 H   0  0
    7.0139  -21.2784   -0.4069 H   0  0
    8.1154  -22.3427    0.4991 H   0  0
    8.1236  -22.3611   -1.2805 H   0  0
   10.3294  -24.1113   -1.2308 H   0  0
   13.6320  -15.7126    1.6279 H   0  0
   12.9075  -16.4250    0.1660 H   0  0
   11.4906  -16.6845    1.1001 H   0  0
    9.3022  -13.4354   -0.6201 H   0  0
    4.8761  -14.4162   -0.7725 H   0  0
    5.4640  -15.2796    0.6683 H   0  0
    5.6650  -16.0019   -0.9458 H   0  0
    7.1312  -18.1032    0.1815 H   0  0
  1  2  1  0
  3  2  1  0
  3  4  1  0
  4  5  1  0
  5  1  1  0
  6  7  1  0
  7  8  4  0
  8  9  4  0
  9 10  4  0
 10 11  4  0
 11 12  4  0
  7 12  4  0
  6 13  2  0
  6 14  1  0
 15 16  1  0
 11 15  1  0
 10 17  1  0
  9 18  1  0
  2 14  1  0
 19 20  1  0
 20 21  4  0
 21 22  4  0
 22 23  4  0
 23 24  4  0
 24 25  4  0
 20 25  4  0
 19 26  2  0
 19 27  1  0
 28 29  1  0
 24 28  1  0
 23 30  1  0
 22 31  1  0
  3 27  1  0
 32 33  1  0
 33 34  4  0
 34 35  4  0
 35 36  4  0
 36 37  4  0
 37 38  4  0
 33 38  4  0
 32 39  2  0
 32 40  1  0
 41 42  1  0
 37 41  1  0
 36 43  1  0
 35 44  1  0
  4 40  1  0
 47 48  1  0
 48 49  4  0
 49 50  4  0
 50 51  4  0
 51 52  4  0
 52 53  4  0
 48 53  4  0
 47 54  2  0
 55 56  1  0
 52 55  1  0
 51 57  1  0
 50 58  1  0
 46 47  1  0
 45 46  1  0
  5 45  1  0
  2 59  1  0
  3 60  1  0
  4 61  1  0
  5 62  1  0
  8 63  1  0
 12 64  1  0
 16 65  1  0
 16 66  1  0
 16 67  1  0
 17 68  1  0
 21 69  1  0
 25 70  1  0
 29 71  1  0
 29 72  1  0
 29 73  1  0
 30 74  1  0
 34 75  1  0
 38 76  1  0
 42 77  1  0
 42 78  1  0
 42 79  1  0
 43 80  1  0
 45 81  1  0
 45 82  1  0
 49 83  1  0
 53 84  1  0
 56 85  1  0
 56 86  1  0
 56 87  1  0
 57 88  1  0
M  END
> <Name>
Molecule

> <Clean Energy>
148.581

> <From>
www.bindingDB.org

> <BindingDB Reactant_set_id>
50760336

> <Ligand InChI>
InChI=1S/C37H30Br4O17/c1-50-22-9-14(5-18(38)27(22)42)33(46)54-13-26-31(56-34(47)15-6-19(39)28(43)23(10-15)51-2)32(57-35(48)16-7-20(40)29(44)24(11-16)52-3)37(55-26)58-36(49)17-8-21(41)30(45)25(12-17)53
-4/h5-12,26,31-32,37,42-45H,13H2,1-4H3/t26-,31-,32-,37?/m1/s1

> <Ligand InChI Key>
DJXDYVLADVEWGM-SZJWCCOVSA-N

> <BindingDB MonomerID>
50241910

> <BindingDB Ligand Name>
CHEMBL4064889

> <Target Name>
Tyrosine-protein phosphatase non-receptor type 1

> <Target Source Organism According to Curator or DataSource>
Homo sapiens

> <IC50 (nM)>
1500

> <Curation/DataSource>
ChEMBL

> <Article DOI>
10.1016/j.ejmech.2017.04.004

> <BindingDB Entry DOI>
10.7270/Q2WD42QK

> <PMID>
28395151

> <Authors>
Zhang, R; Yu, R; Xu, Q; Li, X; Luo, J; Jiang, B; Wang, L; Guo, S; Wu, N; Shi, D

> <Institution>
Chinese Academy of Sciences

> <Link to Ligand in BindingDB>
http://www.bindingdb.org/bind/chemsearch/marvin/MolStructure.jsp?monomerid=50241910

> <Link to Ligand-Target Pair in BindingDB>
http://www.bindingdb.org/jsp/dbsearch/PrimarySearch_ki.jsp?energyterm=kJ/mole&tag=pol&polymerid=2622&target=Tyrosine-protein+phosphatase+non-receptor+type+1&column=ki&startPg=0&Increment=50&submit=Sea
rch
http://www.bindingdb.org/jsp/dbsearch/PrimarySearch_ki.jsp?energyterm=kJ/mole&tag=r21&monomerid=50241910&enzyme=Tyrosine-protein+phosphatase+non-receptor+type+1&column=ki&startPg=0&Increment=50&submit
=Search

> <PubChem CID of Ligand>
137637898

> <PubChem SID of Ligand>
386402187

> <ChEMBL ID of Ligand>
CHEMBL4064889

> <Number of Protein Chains in Target (bigger than 1 implies a multichain complex)>
1

> <BindingDB Target Chain Sequence>
MEMEKEFEQIDKSGSWAAIYQDIRHEASDFPCRVAKLPKNKNRNRYRDVSPFDHSRIKLHQEDNDYINASLIKMEEAQRSYILTQGPLPNTCGHFWEMVWEQKSRGVVMLNRVMEKGSLKCAQYWPQKEEKEMIFEDTNLKLTLISEDIKSYYTVRQLELENLTTQETREILHFHYTTWPDFGVPESPASFLNFLFKVRE
SGSLSPEHGPVVVHCSAGIGRSGTFCLADTCLLLMDKRKDPSSVDIKKVLLEMRKFRMGLIQTADQLRFSYLAVIEGAKFIMGDSSVQDQWKELSHEDLEPPPEHIPPPPRPPKRILEPHNGKCREFFPNHQWVKEETQEDKDCPIKEEKGSPLNAAPYGIESMSQDTEVRSRVVGGSLRGAQAASPAKGEPSLPEKDED
HALSYWKPFLVNMCVATVLTAGAYLCYRFLFNSNT

> <PDB ID(s) of Target Chain>
1BZJ,1G7G,1GFY,1JF7,1KAK,1KAV,1LQF,1NL9,1NNY,1NO6,1NZ7,1OEM,1OEO,1OES,1OET,1OEU,1OEV,1ONY,1ONZ,1PH0,1PXH,1PYN,1Q1M,1Q6J,1Q6M,1Q6N,1Q6P,1Q6S,1Q6T,1QXK,1SUG,1T48,1T49,1T4J,1WAX,1XBO,2AZR,2B07,2BGD,2BGE,
2CM2,2CM3,2CM7,2CM8,2CMA,2CMB,2CMC,2CNE,2CNF,2CNG,2CNH,2CNI,2F6T,2F6V,2F6W,2F6Y,2F6Z,2F70,2F71,2FJN,2H4G,2H4K,2HB1,2HNP,2HNQ,2QBP,2QBQ,2QBR,2QBS,2VEU,2VEV,2VEW,2VEX,2VEY,2ZMM,2ZN7,3A5J,3CWE,3D9C,3EAX,
3EB1,3EU0,3I7Z,3I80,3SME,4BJO,4I8N,4QBW,4Y14,5K9V,5K9W,5KA0,5KA1,5T19,6B90,6NTP,6W30,7KEY,7KLX,7LFO,7MN9,7MNA,8DU7,8G65,8G67,8G68,8G69,8G6A,8SKL

> <UniProt (SwissProt) Recommended Name of Target Chain>
Tyrosine-protein phosphatase non-receptor type 1

> <UniProt (SwissProt) Entry Name of Target Chain>
PTN1_HUMAN

> <UniProt (SwissProt) Primary ID of Target Chain>
P18031

> <UniProt (SwissProt) Secondary ID(s) of Target Chain>
Q5TGD8 Q9BQV9 Q9NQQ4

$$$$
Molecule
  SciTegic10242319433D

 56 58  0  0  0  0            999 V2000
    3.7909  -17.1559    0.0003 N   0  0
    5.0342  -17.8852    0.0003 C   0  0
    5.1584  -19.5456    0.0024 S   0  0
    6.8203  -19.6839    0.0019 C   0  0
    7.2857  -18.4206    0.0000 C   0  0
    6.2174  -17.3758   -0.0010 N   0  0
    8.7446  -18.1370   -0.0003 C   0  0
    9.7043  -19.2525    0.0007 C   0  0
   11.0101  -19.0039    0.0008 C   0  0
   11.4619  -17.6209   -0.0001 C   0  0
   10.5588  -16.6412   -0.0010 C   0  0
    9.1714  -16.9295   -0.0010 N   0  0
    1.2530  -16.8775    0.0038 C   0  0
  -11.7932  -15.6194    0.1933 O   0  0
  -10.4219  -14.6468   -0.1016 S   0  0
   -8.8965  -15.5970   -0.0455 C   0  0
   -7.7224  -14.9523   -0.0546 C   0  0
   -6.4019  -15.6583   -0.0236 C   0  0
   -6.3280  -16.9889    0.0087 C   0  0
   -5.0012  -17.6576    0.0301 C   0  0
   -3.8678  -16.9450    0.0163 C   0  0
   -3.9551  -15.4747   -0.0183 C   0  0
   -5.1503  -14.8702   -0.0369 C   0  0
  -10.5602  -14.0146   -1.4736 O   0  0
  -10.3623  -13.5376    0.9313 O   0  0
  -12.9700  -14.7923    0.1183 C   0  0
   -2.5998  -17.6375    0.0334 O   0  0
  -14.2350  -15.6363    0.3737 C   0  0
   -1.4044  -16.7783    0.0132 C   0  0
   -0.1046  -17.6935    0.0206 C   0  0
    2.4953  -17.8651    0.0093 C   0  0
    3.8068  -16.0861   -0.0064 H   0  0
    7.4061  -20.6031    0.0028 H   0  0
    9.3447  -20.2815    0.0014 H   0  0
   11.7302  -19.8222    0.0015 H   0  0
   12.5269  -17.3888   -0.0001 H   0  0
   10.8919  -15.6034   -0.0017 H   0  0
    1.2894  -16.2605   -0.8940 H   0  0
    1.2985  -16.2391    0.8861 H   0  0
   -8.9268  -16.6858   -0.0046 H   0  0
   -7.7284  -13.8627   -0.0861 H   0  0
   -7.2400  -17.5858    0.0194 H   0  0
   -4.9499  -18.7460    0.0575 H   0  0
   -3.0438  -14.8767   -0.0289 H   0  0
   -5.2012  -13.7817   -0.0621 H   0  0
  -12.9050  -14.0058    0.8701 H   0  0
  -13.0314  -14.3438   -0.8733 H   0  0
  -15.1165  -14.9980    0.3138 H   0  0
  -14.1788  -16.0853    1.3654 H   0  0
  -14.3052  -16.4232   -0.3774 H   0  0
   -1.4124  -16.1635   -0.8868 H   0  0
   -1.4027  -16.1352    0.8932 H   0  0
   -0.1237  -18.3098    0.9194 H   0  0
   -0.1309  -18.3344   -0.8607 H   0  0
    2.4437  -18.4844    0.9048 H   0  0
    2.4395  -18.4994   -0.8754 H   0  0
 15 16  1  0
 16 17  2  0
  8  9  2  0
 17 18  1  0
  3  4  1  0
 18 19  2  0
  9 10  1  0
 19 20  1  0
  4  5  2  0
 20 21  2  0
 10 11  2  0
 21 22  1  0
  5  6  1  0
 22 23  2  0
 23 18  1  0
 11 12  1  0
 15 24  2  0
 12  7  2  0
 15 25  2  0
  5  7  1  0
 14 26  1  0
  6  2  2  0
 21 27  1  0
  1  2  1  0
 26 28  1  0
  2  3  1  0
 27 29  1  0
 14 15  1  0
 29 30  1  0
 30 13  1  0
  7  8  1  0
 13 31  1  0
 31  1  1  0
  1 32  1  0
  4 33  1  0
  8 34  1  0
  9 35  1  0
 10 36  1  0
 11 37  1  0
 13 38  1  0
 13 39  1  0
 16 40  1  0
 17 41  1  0
 19 42  1  0
 20 43  1  0
 22 44  1  0
 23 45  1  0
 26 46  1  0
 26 47  1  0
 28 48  1  0
 28 49  1  0
 28 50  1  0
 29 51  1  0
 29 52  1  0
 30 53  1  0
 30 54  1  0
 31 55  1  0
 31 56  1  0
M  END
> <Name>
Molecule

> <Clean Energy>
25.0657

> <From>
www.bindingDB.org

> <BindingDB Reactant_set_id>
50952922

> <Ligand InChI>
InChI=1S/C22H25N3O4S2/c1-2-29-31(26,27)16-12-18-8-10-19(11-9-18)28-15-6-5-14-24-22-25-21(17-30-22)20-7-3-4-13-23-20/h3-4,7-13,16-17H,2,5-6,14-15H2,1H3,(H,24,25)/b16-12+

> <Ligand InChI Key>
LMEDYMTXRWZJBL-FOWTUZBSSA-N

> <BindingDB MonomerID>
50391106

> <BindingDB Ligand Name>
CHEMBL2087691

> <Target Name>
Tyrosine-protein phosphatase non-receptor type 1

> <Target Source Organism According to Curator or DataSource>
Homo sapiens

> <IC50 (nM)>
1500

> <Curation/DataSource>
ChEMBL

> <Article DOI>
10.1016/j.ejmech.2012.09.015

> <BindingDB Entry DOI>
10.7270/Q2HX1DRS

> <PMID>
23043764

> <Authors>
Liu, J; Jiang, F; Jin, Y; Zhang, Y; Liu, J; Liu, W; Fu, L

> <Institution>
Shanghai Jiao Tong University

> <Link to Ligand in BindingDB>
http://www.bindingdb.org/bind/chemsearch/marvin/MolStructure.jsp?monomerid=50391106

> <Link to Ligand-Target Pair in BindingDB>
http://www.bindingdb.org/jsp/dbsearch/PrimarySearch_ki.jsp?energyterm=kJ/mole&tag=pol&polymerid=2622&target=Tyrosine-protein+phosphatase+non-receptor+type+1&column=ki&startPg=0&Increment=50&submit=Sea
rch
http://www.bindingdb.org/jsp/dbsearch/PrimarySearch_ki.jsp?energyterm=kJ/mole&tag=r21&monomerid=50391106&enzyme=Tyrosine-protein+phosphatase+non-receptor+type+1&column=ki&startPg=0&Increment=50&submit
=Search

> <PubChem CID of Ligand>
70697358

> <PubChem SID of Ligand>
160870189

> <ChEMBL ID of Ligand>
CHEMBL2087691

> <ZINC ID of Ligand>
ZINC84740087

> <Number of Protein Chains in Target (bigger than 1 implies a multichain complex)>
1

> <BindingDB Target Chain Sequence>
MEMEKEFEQIDKSGSWAAIYQDIRHEASDFPCRVAKLPKNKNRNRYRDVSPFDHSRIKLHQEDNDYINASLIKMEEAQRSYILTQGPLPNTCGHFWEMVWEQKSRGVVMLNRVMEKGSLKCAQYWPQKEEKEMIFEDTNLKLTLISEDIKSYYTVRQLELENLTTQETREILHFHYTTWPDFGVPESPASFLNFLFKVRE
SGSLSPEHGPVVVHCSAGIGRSGTFCLADTCLLLMDKRKDPSSVDIKKVLLEMRKFRMGLIQTADQLRFSYLAVIEGAKFIMGDSSVQDQWKELSHEDLEPPPEHIPPPPRPPKRILEPHNGKCREFFPNHQWVKEETQEDKDCPIKEEKGSPLNAAPYGIESMSQDTEVRSRVVGGSLRGAQAASPAKGEPSLPEKDED
HALSYWKPFLVNMCVATVLTAGAYLCYRFLFNSNT

> <PDB ID(s) of Target Chain>
1BZJ,1G7G,1GFY,1JF7,1KAK,1KAV,1LQF,1NL9,1NNY,1NO6,1NZ7,1OEM,1OEO,1OES,1OET,1OEU,1OEV,1ONY,1ONZ,1PH0,1PXH,1PYN,1Q1M,1Q6J,1Q6M,1Q6N,1Q6P,1Q6S,1Q6T,1QXK,1SUG,1T48,1T49,1T4J,1WAX,1XBO,2AZR,2B07,2BGD,2BGE,
2CM2,2CM3,2CM7,2CM8,2CMA,2CMB,2CMC,2CNE,2CNF,2CNG,2CNH,2CNI,2F6T,2F6V,2F6W,2F6Y,2F6Z,2F70,2F71,2FJN,2H4G,2H4K,2HB1,2HNP,2HNQ,2QBP,2QBQ,2QBR,2QBS,2VEU,2VEV,2VEW,2VEX,2VEY,2ZMM,2ZN7,3A5J,3CWE,3D9C,3EAX,
3EB1,3EU0,3I7Z,3I80,3SME,4BJO,4I8N,4QBW,4Y14,5K9V,5K9W,5KA0,5KA1,5T19,6B90,6NTP,6W30,7KEY,7KLX,7LFO,7MN9,7MNA,8DU7,8G65,8G67,8G68,8G69,8G6A,8SKL

> <UniProt (SwissProt) Recommended Name of Target Chain>
Tyrosine-protein phosphatase non-receptor type 1

> <UniProt (SwissProt) Entry Name of Target Chain>
PTN1_HUMAN

> <UniProt (SwissProt) Primary ID of Target Chain>
P18031

> <UniProt (SwissProt) Secondary ID(s) of Target Chain>
Q5TGD8 Q9BQV9 Q9NQQ4

$$$$
Molecule
  SciTegic10242319433D

 93 97  0  0  0  0            999 V2000
   36.5882  -21.4654    1.1370 O   0  0
   36.1655  -22.5060    0.1174 S   0  0
   36.4533  -21.9772   -1.2755 O   0  0
   31.0641  -10.3131   -1.2432 O   0  0
   31.6572  -10.8766    0.0340 S   0  0
   31.0145  -10.1733    1.2137 O   0  0
   25.5684  -20.6726   -0.7846 C   0  0
   27.1380  -20.5354   -0.7057 C   0  0  1  0  0  0
   27.1975  -19.0036   -0.4205 C   0  0  1  0  0  0
   26.2150  -18.9169    0.7919 C   0  0
   25.1120  -19.7416    0.2493 N   0  0
   23.7003  -19.5078    0.6041 C   0  0
   23.4492  -18.5949    1.3938 O   0  0
   22.5261  -20.3757    0.1288 C   0  0
   21.2594  -19.9936    0.4645 N   0  0
   22.7220  -21.4134   -0.5074 O   0  0
   28.5647  -18.5311   -0.1847 O   0  0
   27.7626  -21.3489    0.3842 O   0  0
   28.8549  -17.1443   -0.0819 C   0  0
   29.2601  -21.4259    0.2823 C   0  0
   30.1294  -16.8000    0.1249 C   0  0
   30.5362  -15.3901    0.1729 C   0  0
   29.6250  -14.4354    0.0047 C   0  0
   28.2141  -14.8065   -0.2116 C   0  0
   27.8464  -16.0901   -0.2534 C   0  0
   29.9812  -22.1335    1.1641 C   0  0
   31.4872  -22.2029    1.0403 C   0  0
   32.1105  -21.5520    0.0498 C   0  0
   31.3250  -20.8030   -0.9061 C   0  0
   30.0024  -20.7528   -0.8121 C   0  0
   30.0170  -13.0105   -0.0073 C   0  0
   31.2887  -12.6196    0.1121 C   0  0
   33.3340  -10.5840    0.0444 O   0  0
   33.5493   -9.1671   -0.0570 C   0  0
   35.0581   -8.8578   -0.0667 C   0  0
   33.6312  -21.5336   -0.1194 C   0  0
   34.3704  -22.8272    0.2929 C   0  0
   37.0751  -23.9253    0.3540 O   0  0
   38.4669  -23.6185    0.1682 C   0  0
   39.3138  -24.8975    0.3135 C   0  0
   20.0308  -20.7524    0.2186 C   0  0
   18.8401  -20.1462    0.3283 C   0  0
   17.5670  -20.9147    0.1722 C   0  0
   17.5934  -22.2333   -0.0580 C   0  0
   18.9150  -22.8824   -0.1788 C   0  0
   20.0527  -22.1926   -0.0557 C   0  0
   16.4184  -23.1163   -0.1807 O   0  0
   15.0131  -22.7022   -0.1073 C   0  0
   14.5811  -21.4437    0.0292 C   0  0
   13.1338  -21.1488    0.0848 C   0  0
   12.2419  -22.1358    0.0046 C   0  0
   12.6989  -23.5117   -0.1388 C   0  0
   14.0032  -23.7797   -0.1942 C   0  0
   10.3763  -21.7558    0.0713 Br  0  0
   25.1973  -20.3813   -1.7672 H   0  0
   25.2514  -21.6917   -0.5634 H   0  0
   27.5939  -20.7662   -1.6685 H   0  0
   26.7721  -18.4641   -1.2667 H   0  0
   26.6423  -19.3490    1.6968 H   0  0
   25.9004  -17.8925    0.9914 H   0  0
   21.1537  -19.0484    0.9547 H   0  0
   30.8797  -17.5790    0.2603 H   0  0
   31.5797  -15.1268    0.3454 H   0  0
   27.4641  -14.0259   -0.3387 H   0  0
   26.8012  -16.3544   -0.4142 H   0  0
   29.4792  -22.6618    1.9747 H   0  0
   32.0660  -22.7837    1.7585 H   0  0
   31.8266  -20.2722   -1.7153 H   0  0
   29.4420  -20.1980   -1.5646 H   0  0
   29.2416  -12.2524   -0.1175 H   0  0
   32.0845  -13.3507    0.2543 H   0  0
   33.1007   -8.7999   -0.9801 H   0  0
   33.0856   -8.6706    0.7955 H   0  0
   35.2083   -7.7810   -0.1438 H   0  0
   35.5252   -9.3513   -0.9190 H   0  0
   35.5101   -9.2220    0.8560 H   0  0
   33.8482  -21.3453   -1.1708 H   0  0
   34.0248  -20.7166    0.4854 H   0  0
   34.1355  -23.0776    1.3274 H   0  0
   34.0732  -23.6501   -0.3571 H   0  0
   38.6141  -23.1998   -0.8273 H   0  0
   38.7793  -22.8920    0.9184 H   0  0
   40.3668  -24.6548    0.1711 H   0  0
   39.0047  -25.6257   -0.4364 H   0  0
   39.1698  -25.3181    1.3088 H   0  0
   18.7994  -19.0766    0.5345 H   0  0
   16.6103  -20.3976    0.2462 H   0  0
   18.9634  -23.9537   -0.3739 H   0  0
   21.0082  -22.7065   -0.1604 H   0  0
   15.3020  -20.6292    0.1000 H   0  0
   12.7942  -20.1186    0.1920 H   0  0
   11.9733  -24.3227   -0.2008 H   0  0
   14.3322  -24.8128   -0.3058 H   0  0
  2  1  2  0
  3  2  2  0
  5  4  2  0
  6  5  2  0
  7  8  1  0
  8  9  1  0
  9 10  1  0
 10 11  1  0
 11  7  1  0
 11 12  1  0
 12 13  2  0
 12 14  1  0
 14 15  1  0
 14 16  2  0
  9 17  1  0
  8 18  1  0
 17 19  1  0
 18 20  1  0
 19 21  2  0
 21 22  1  0
 22 23  2  0
 23 24  1  0
 24 25  2  0
 25 19  1  0
 20 26  2  0
 26 27  1  0
 27 28  2  0
 28 29  1  0
 29 30  2  0
 30 20  1  0
 23 31  1  0
 31 32  2  0
 32  5  1  0
  5 33  1  0
 33 34  1  0
 34 35  1  0
 28 36  1  0
 36 37  1  0
 37  2  1  0
  2 38  1  0
 38 39  1  0
 39 40  1  0
 15 41  1  0
 41 42  2  0
 42 43  1  0
 43 44  2  0
 44 45  1  0
 45 46  2  0
 46 41  1  0
 44 47  1  0
 47 48  1  0
 48 49  2  0
 49 50  1  0
 50 51  2  0
 51 52  1  0
 52 53  2  0
 53 48  1  0
 51 54  1  0
  7 55  1  0
  7 56  1  0
  8 57  1  0
  9 58  1  0
 10 59  1  0
 10 60  1  0
 15 61  1  0
 21 62  1  0
 22 63  1  0
 24 64  1  0
 25 65  1  0
 26 66  1  0
 27 67  1  0
 29 68  1  0
 30 69  1  0
 31 70  1  0
 32 71  1  0
 34 72  1  0
 34 73  1  0
 35 74  1  0
 35 75  1  0
 35 76  1  0
 36 77  1  0
 36 78  1  0
 37 79  1  0
 37 80  1  0
 39 81  1  0
 39 82  1  0
 40 83  1  0
 40 84  1  0
 40 85  1  0
 42 86  1  0
 43 87  1  0
 45 88  1  0
 46 89  1  0
 49 90  1  0
 50 91  1  0
 52 92  1  0
 53 93  1  0
M  END
> <Name>
Molecule

> <Clean Energy>
51.5557

> <From>
www.bindingDB.org

> <BindingDB Reactant_set_id>
51310210

> <Ligand InChI>
InChI=1S/C38H39BrN2O11S2/c1-3-48-53(44,45)23-21-27-5-13-33(14-6-27)51-35-25-41(26-36(35)52-34-15-7-28(8-16-34)22-24-54(46,47)49-4-2)38(43)37(42)40-30-11-19-32(20-12-30)50-31-17-9-29(39)10-18-31/h5-21,
23,35-36H,3-4,22,24-26H2,1-2H3,(H,40,42)/b23-21+/t35-,36+/m1/s1

> <Ligand InChI Key>
IJAOAINQBZFHMD-YXAPQHGCSA-N

> <BindingDB MonomerID>
50531708

> <BindingDB Ligand Name>
CHEMBL4442675

> <Target Name>
Tyrosine-protein phosphatase non-receptor type 1

> <Target Source Organism According to Curator or DataSource>
Homo sapiens

> <IC50 (nM)>
1510

> <Curation/DataSource>
ChEMBL

> <Article DOI>
10.1016/j.ejmech.2018.12.032

> <BindingDB Entry DOI>
10.7270/Q2KK9G90

> <PMID>
30611982

> <Authors>
Xie, F; Yang, F; Liang, Y; Li, L; Xia, Y; Jiang, F; Liu, W; Qi, Y; Chowdhury, SR; Xie, D; Fu, L

> <Institution>
Shanghai Jiao Tong University (SJTU)

> <Link to Ligand in BindingDB>
http://www.bindingdb.org/bind/chemsearch/marvin/MolStructure.jsp?monomerid=50531708

> <Link to Ligand-Target Pair in BindingDB>
http://www.bindingdb.org/jsp/dbsearch/PrimarySearch_ki.jsp?energyterm=kJ/mole&tag=pol&polymerid=2622&target=Tyrosine-protein+phosphatase+non-receptor+type+1&column=ki&startPg=0&Increment=50&submit=Sea
rch
http://www.bindingdb.org/jsp/dbsearch/PrimarySearch_ki.jsp?energyterm=kJ/mole&tag=r21&monomerid=50531708&enzyme=Tyrosine-protein+phosphatase+non-receptor+type+1&column=ki&startPg=0&Increment=50&submit
=Search

> <PubChem CID of Ligand>
155515906

> <PubChem SID of Ligand>
440740290

> <Number of Protein Chains in Target (bigger than 1 implies a multichain complex)>
1

> <BindingDB Target Chain Sequence>
MEMEKEFEQIDKSGSWAAIYQDIRHEASDFPCRVAKLPKNKNRNRYRDVSPFDHSRIKLHQEDNDYINASLIKMEEAQRSYILTQGPLPNTCGHFWEMVWEQKSRGVVMLNRVMEKGSLKCAQYWPQKEEKEMIFEDTNLKLTLISEDIKSYYTVRQLELENLTTQETREILHFHYTTWPDFGVPESPASFLNFLFKVRE
SGSLSPEHGPVVVHCSAGIGRSGTFCLADTCLLLMDKRKDPSSVDIKKVLLEMRKFRMGLIQTADQLRFSYLAVIEGAKFIMGDSSVQDQWKELSHEDLEPPPEHIPPPPRPPKRILEPHNGKCREFFPNHQWVKEETQEDKDCPIKEEKGSPLNAAPYGIESMSQDTEVRSRVVGGSLRGAQAASPAKGEPSLPEKDED
HALSYWKPFLVNMCVATVLTAGAYLCYRFLFNSNT

> <PDB ID(s) of Target Chain>
1BZJ,1G7G,1GFY,1JF7,1KAK,1KAV,1LQF,1NL9,1NNY,1NO6,1NZ7,1OEM,1OEO,1OES,1OET,1OEU,1OEV,1ONY,1ONZ,1PH0,1PXH,1PYN,1Q1M,1Q6J,1Q6M,1Q6N,1Q6P,1Q6S,1Q6T,1QXK,1SUG,1T48,1T49,1T4J,1WAX,1XBO,2AZR,2B07,2BGD,2BGE,
2CM2,2CM3,2CM7,2CM8,2CMA,2CMB,2CMC,2CNE,2CNF,2CNG,2CNH,2CNI,2F6T,2F6V,2F6W,2F6Y,2F6Z,2F70,2F71,2FJN,2H4G,2H4K,2HB1,2HNP,2HNQ,2QBP,2QBQ,2QBR,2QBS,2VEU,2VEV,2VEW,2VEX,2VEY,2ZMM,2ZN7,3A5J,3CWE,3D9C,3EAX,
3EB1,3EU0,3I7Z,3I80,3SME,4BJO,4I8N,4QBW,4Y14,5K9V,5K9W,5KA0,5KA1,5T19,6B90,6NTP,6W30,7KEY,7KLX,7LFO,7MN9,7MNA,8DU7,8G65,8G67,8G68,8G69,8G6A,8SKL

> <UniProt (SwissProt) Recommended Name of Target Chain>
Tyrosine-protein phosphatase non-receptor type 1

> <UniProt (SwissProt) Entry Name of Target Chain>
PTN1_HUMAN

> <UniProt (SwissProt) Primary ID of Target Chain>
P18031

> <UniProt (SwissProt) Secondary ID(s) of Target Chain>
Q5TGD8 Q9BQV9 Q9NQQ4

$$$$
Molecule
  SciTegic10242319433D

 68 73  0  0  0  0            999 V2000
    2.7014  -19.7999    0.0174 C   0  0
    2.7597  -21.1361   -0.0034 C   0  0
    4.0831  -21.8230   -0.0180 C   0  0
    3.9580  -19.0351    0.0280 C   0  0
    5.1376  -19.6615    0.0152 C   0  0
    5.2113  -21.1050   -0.0094 C   0  0
    6.5551  -21.7528   -0.0326 C   0  0
    7.6730  -21.0042   -0.0280 C   0  0
    7.5565  -19.5254    0.0034 C   0  0
    6.3761  -18.9010    0.0238 C   0  0
    1.4549  -19.0926    0.0267 O   0  0
    9.0413  -21.6846   -0.0638 C   0  0
   10.2358  -21.0483   -0.0773 C   0  0
   11.5801  -21.7161   -0.1217 C   0  0
   12.7343  -20.7362   -0.1305 N   0  0
   12.1982  -19.3624   -0.1058 C   0  0
   10.5106  -19.4039   -0.0584 S   0  0
   12.9924  -18.0130   -0.1684 S   0  0
   11.6887  -22.9429   -0.1569 O   0  0
   14.2564  -21.0972   -0.1860 C   0  0  2  0  0  0
   14.6248  -22.4870    0.3915 C   0  0
   15.2580  -19.9148    0.2510 C   0  0
   16.7874  -20.0513   -0.0508 C   0  0
   17.4608  -21.1441   -0.4453 C   0  0
   18.8473  -20.7847   -0.5856 N   0  0
   17.7566  -18.9672    0.0420 C   0  0
   18.9374  -19.4280   -0.2733 C   0  0
   20.1231  -18.5876   -0.2868 C   0  0
   19.9652  -17.2976    0.0321 C   0  0
   18.6092  -16.7670    0.3888 C   0  0
   17.5403  -17.5762    0.3969 C   0  0
   13.8751  -23.6134    0.1135 O   0  0
   15.6599  -22.6316    1.0482 O   0  0
    0.3045  -19.9674    0.0108 C   0  0
   -1.0413  -19.2093    0.0062 C   0  0
   -1.1179  -17.8692    0.0041 C   0  0
   -2.4455  -17.2131   -0.0004 C   0  0
   -3.5609  -17.9391   -0.0024 C   0  0
   -3.4770  -19.3948   -0.0004 C   0  0
   -2.2875  -19.9965    0.0036 C   0  0
    0.0421  -17.0816    0.0057 O   0  0
   -0.2840  -15.6817    0.0024 C   0  0
    1.8408  -21.7222   -0.0097 H   0  0
    4.1310  -22.9118   -0.0356 H   0  0
    3.9261  -17.9457    0.0464 H   0  0
    6.6316  -22.8399   -0.0534 H   0  0
    8.4674  -18.9268    0.0101 H   0  0
    6.3412  -17.8118    0.0471 H   0  0
    9.0563  -22.7744   -0.0799 H   0  0
   14.4496  -21.2090   -1.2529 H   0  0
   14.9158  -19.0084   -0.2485 H   0  0
   15.1570  -19.7960    1.3298 H   0  0
   17.0326  -22.1298   -0.6272 H   0  0
   19.6505  -21.4306   -0.8728 H   0  0
   21.1015  -18.9918   -0.5462 H   0  0
   20.8265  -16.6295    0.0325 H   0  0
   18.4912  -15.7139    0.6438 H   0  0
   16.5496  -17.2050    0.6593 H   0  0
   12.8909  -23.4715    0.4508 H   0  0
    0.3546  -20.5880   -0.8839 H   0  0
    0.3406  -20.6020    0.8962 H   0  0
   -2.5098  -16.1250   -0.0020 H   0  0
   -4.5336  -17.4473   -0.0056 H   0  0
   -4.3887  -19.9922   -0.0023 H   0  0
   -2.2357  -21.0853    0.0050 H   0  0
    0.6341  -15.0942    0.0038 H   0  0
   -0.8692  -15.4423    0.8903 H   0  0
   -0.8645  -15.4454   -0.8894 H   0  0
  1  2  2  0
  2  3  1  0
  3  6  2  0
  5  4  2  0
  4  1  1  0
  5  6  1  0
  6  7  1  0
  7  8  2  0
  8  9  1  0
  9 10  2  0
 10  5  1  0
  1 11  1  0
  8 12  1  0
 12 13  2  0
 13 14  1  0
 14 15  1  0
 15 16  1  0
 16 17  1  0
 17 13  1  0
 16 18  2  0
 14 19  2  0
 15 20  1  0
 20 21  1  0
 20 22  1  0
 22 23  1  0
 23 24  2  0
 24 25  1  0
 25 27  1  0
 26 23  1  0
 26 27  2  0
 27 28  1  0
 28 29  2  0
 29 30  1  0
 30 31  2  0
 31 26  1  0
 21 32  1  0
 21 33  2  0
 11 34  1  0
 34 35  1  0
 35 36  2  0
 36 37  1  0
 37 38  2  0
 38 39  1  0
 39 40  2  0
 40 35  1  0
 36 41  1  0
 41 42  1  0
  2 43  1  0
  3 44  1  0
  4 45  1  0
  7 46  1  0
  9 47  1  0
 10 48  1  0
 12 49  1  0
 20 50  1  0
 22 51  1  0
 22 52  1  0
 24 53  1  0
 25 54  1  0
 28 55  1  0
 29 56  1  0
 30 57  1  0
 31 58  1  0
 32 59  1  0
 34 60  1  0
 34 61  1  0
 37 62  1  0
 38 63  1  0
 39 64  1  0
 40 65  1  0
 42 66  1  0
 42 67  1  0
 42 68  1  0
M  END
> <Name>
Molecule

> <Clean Energy>
61.1732

> <From>
www.bindingDB.org

> <BindingDB Reactant_set_id>
51252823

> <Ligand InChI>
InChI=1S/C33H26N2O5S2/c1-39-29-9-5-2-6-23(29)19-40-25-13-12-21-14-20(10-11-22(21)16-25)15-30-31(36)35(33(41)42-30)28(32(37)38)17-24-18-34-27-8-4-3-7-26(24)27/h2-16,18,28,34H,17,19H2,1H3,(H,37,38)/b30-
15-

> <Ligand InChI Key>
MYYSNSOAXLNQFB-MNDYBZJGSA-N

> <BindingDB MonomerID>
50512274

> <BindingDB Ligand Name>
CHEMBL4515217

> <Target Name>
Tyrosine-protein phosphatase non-receptor type 1

> <Target Source Organism According to Curator or DataSource>
Homo sapiens

> <IC50 (nM)>
1530

> <Curation/DataSource>
ChEMBL

> <Article DOI>
10.1016/j.ejmech.2019.03.059

> <BindingDB Entry DOI>
10.7270/Q2028VWB

> <PMID>
30978561

> <Authors>
Liu, H; Sun, D; Du, H; Zheng, C; Li, J; Piao, H; Li, J; Sun, L

> <Institution>
Yanbian University College of Pharmacy

> <Link to Ligand in BindingDB>
http://www.bindingdb.org/bind/chemsearch/marvin/MolStructure.jsp?monomerid=50512274

> <Link to Ligand-Target Pair in BindingDB>
http://www.bindingdb.org/jsp/dbsearch/PrimarySearch_ki.jsp?energyterm=kJ/mole&tag=pol&polymerid=2622&target=Tyrosine-protein+phosphatase+non-receptor+type+1&column=ki&startPg=0&Increment=50&submit=Sea
rch
http://www.bindingdb.org/jsp/dbsearch/PrimarySearch_ki.jsp?energyterm=kJ/mole&tag=r21&monomerid=50512274&enzyme=Tyrosine-protein+phosphatase+non-receptor+type+1&column=ki&startPg=0&Increment=50&submit
=Search

> <PubChem CID of Ligand>
155539639

> <PubChem SID of Ligand>
440720856

> <Number of Protein Chains in Target (bigger than 1 implies a multichain complex)>
1

> <BindingDB Target Chain Sequence>
MEMEKEFEQIDKSGSWAAIYQDIRHEASDFPCRVAKLPKNKNRNRYRDVSPFDHSRIKLHQEDNDYINASLIKMEEAQRSYILTQGPLPNTCGHFWEMVWEQKSRGVVMLNRVMEKGSLKCAQYWPQKEEKEMIFEDTNLKLTLISEDIKSYYTVRQLELENLTTQETREILHFHYTTWPDFGVPESPASFLNFLFKVRE
SGSLSPEHGPVVVHCSAGIGRSGTFCLADTCLLLMDKRKDPSSVDIKKVLLEMRKFRMGLIQTADQLRFSYLAVIEGAKFIMGDSSVQDQWKELSHEDLEPPPEHIPPPPRPPKRILEPHNGKCREFFPNHQWVKEETQEDKDCPIKEEKGSPLNAAPYGIESMSQDTEVRSRVVGGSLRGAQAASPAKGEPSLPEKDED
HALSYWKPFLVNMCVATVLTAGAYLCYRFLFNSNT

> <PDB ID(s) of Target Chain>
1BZJ,1G7G,1GFY,1JF7,1KAK,1KAV,1LQF,1NL9,1NNY,1NO6,1NZ7,1OEM,1OEO,1OES,1OET,1OEU,1OEV,1ONY,1ONZ,1PH0,1PXH,1PYN,1Q1M,1Q6J,1Q6M,1Q6N,1Q6P,1Q6S,1Q6T,1QXK,1SUG,1T48,1T49,1T4J,1WAX,1XBO,2AZR,2B07,2BGD,2BGE,
2CM2,2CM3,2CM7,2CM8,2CMA,2CMB,2CMC,2CNE,2CNF,2CNG,2CNH,2CNI,2F6T,2F6V,2F6W,2F6Y,2F6Z,2F70,2F71,2FJN,2H4G,2H4K,2HB1,2HNP,2HNQ,2QBP,2QBQ,2QBR,2QBS,2VEU,2VEV,2VEW,2VEX,2VEY,2ZMM,2ZN7,3A5J,3CWE,3D9C,3EAX,
3EB1,3EU0,3I7Z,3I80,3SME,4BJO,4I8N,4QBW,4Y14,5K9V,5K9W,5KA0,5KA1,5T19,6B90,6NTP,6W30,7KEY,7KLX,7LFO,7MN9,7MNA,8DU7,8G65,8G67,8G68,8G69,8G6A,8SKL

> <UniProt (SwissProt) Recommended Name of Target Chain>
Tyrosine-protein phosphatase non-receptor type 1

> <UniProt (SwissProt) Entry Name of Target Chain>
PTN1_HUMAN

> <UniProt (SwissProt) Primary ID of Target Chain>
P18031

> <UniProt (SwissProt) Secondary ID(s) of Target Chain>
Q5TGD8 Q9BQV9 Q9NQQ4

$$$$
Molecule
  SciTegic10242319433D

 48 51  0  0  0  0            999 V2000
    1.2254   -1.0200    0.0002 C   0  0
    0.0923   -1.8324    0.0001 C   0  0
    1.0218    0.5053    0.0005 C   0  0
   -1.3213   -1.0854    0.0002 C   0  0
   -0.2418    1.1185    0.0005 C   0  0
   -1.3949    0.3685    0.0004 C   0  0
    2.7139   -1.6599    0.0001 C   0  0
   10.2619    0.8717   -0.0002 C   0  0
    0.1262   -3.4988   -0.0001 C   0  0
    1.9470    1.2972    0.0009 O   0  0
   -0.3158    2.3516    0.0007 O   0  0
   10.1469    2.1034   -0.0002 O   0  0
    7.9214    0.8956   -0.0007 O   0  0
    4.1190   -0.9379   -0.0002 C   0  0
    9.0333    0.0142   -0.0003 C   0  0
    6.6877    0.2436   -0.0006 C   0  0
   -2.4968   -1.7269    0.0001 C   0  0
   11.5226    0.2915    0.0001 O   0  0
   -2.5574    1.0186    0.0005 C   0  0
    5.2166   -1.7031    0.0002 C   0  0
    4.3106    0.4962   -0.0009 C   0  0
    5.5084    1.0565   -0.0010 C   0  0
    6.5681   -1.0864    0.0000 C   0  0
   -1.0101   -4.2098    0.0001 C   0  0
    1.3695   -4.3348   -0.0007 C   0  0
   -3.7781   -1.0261    0.0002 C   0  0
   -3.8052    0.2975    0.0004 C   0  0
    1.3402   -5.6670   -0.0008 C   0  0
   -1.0492   -5.6726    0.0000 C   0  0
    0.0765   -6.3710   -0.0005 C   0  0
    2.7356   -2.2884    0.8904 H   0  0
    2.7354   -2.2888   -0.8899 H   0  0
    9.0143   -0.6148   -0.8903 H   0  0
    9.0139   -0.6144    0.8900 H   0  0
   -2.4973   -2.8169    0.0000 H   0  0
   11.6340   -0.3045    0.8574 H   0  0
   -2.5650    2.1086    0.0007 H   0  0
    5.1182   -2.7887    0.0007 H   0  0
    3.4318    1.1411   -0.0013 H   0  0
    5.5988    2.1427   -0.0015 H   0  0
    7.4576   -1.7163    0.0003 H   0  0
   -1.9565   -3.6690    0.0005 H   0  0
    2.3371   -3.8330   -0.0009 H   0  0
   -4.7099   -1.5916    0.0002 H   0  0
   -4.7548    0.8327    0.0005 H   0  0
    2.2738   -6.2295   -0.0012 H   0  0
   -2.0087   -6.1898    0.0002 H   0  0
    0.0509   -7.4607   -0.0006 H   0  0
  2  1  2  0
  3  1  1  0
  4  2  1  0
  5  3  1  0
  6  5  1  0
  7  1  1  0
  8 15  1  0
  9  2  1  0
 10  3  2  0
 11  5  2  0
 12  8  2  0
 13 16  1  0
 14  7  1  0
 15 13  1  0
 16 22  1  0
 17  4  2  0
 18  8  1  0
 19  6  2  0
 20 14  2  0
 21 14  1  0
 22 21  2  0
 23 20  1  0
 24  9  2  0
 25  9  1  0
 26 17  1  0
 27 19  1  0
 28 25  2  0
 29 24  1  0
 30 28  1  0
  4  6  1  0
 23 16  2  0
 26 27  2  0
 29 30  2  0
  7 31  1  0
  7 32  1  0
 15 33  1  0
 15 34  1  0
 17 35  1  0
 18 36  1  0
 19 37  1  0
 20 38  1  0
 21 39  1  0
 22 40  1  0
 23 41  1  0
 24 42  1  0
 25 43  1  0
 26 44  1  0
 27 45  1  0
 28 46  1  0
 29 47  1  0
 30 48  1  0
M  END
> <Name>
Molecule

> <Clean Energy>
33.021

> <From>
www.bindingDB.org

> <BindingDB Reactant_set_id>
50209406

> <Ligand InChI>
InChI=1S/C25H18O5/c26-22(27)15-30-18-12-10-16(11-13-18)14-21-23(17-6-2-1-3-7-17)19-8-4-5-9-20(19)24(28)25(21)29/h1-13H,14-15H2,(H,26,27)

> <Ligand InChI Key>
PCTIAHBTEQYRAB-UHFFFAOYSA-N

> <BindingDB MonomerID>
50115748

> <BindingDB Ligand Name>
CHEMBL301436::[4-(3,4-Dioxo-1-phenyl-3,4-dihydro-naphthalen-2-ylmethyl)-phenoxy]-acetic acid

> <Target Name>
Tyrosine-protein phosphatase non-receptor type 1

> <Target Source Organism According to Curator or DataSource>
Homo sapiens

> <IC50 (nM)>
1540

> <Curation/DataSource>
ChEMBL

> <Article DOI>
10.1016/s0960-894x(02)00331-1

> <BindingDB Entry DOI>
10.7270/Q2QZ2999

> <PMID>
12113814

> <Authors>
Ahn, JH; Cho, SY; Ha, JD; Chu, SY; Jung, SH; Jung, YS; Baek, JY; Choi, IK; Shin, EY; Kang, SK; Kim, SS; Cheon, HG; Yang, SD; Choi, JK

> <Institution>
Korea Research Institute of Chemical Technology

> <Link to Ligand in BindingDB>
http://www.bindingdb.org/bind/chemsearch/marvin/MolStructure.jsp?monomerid=50115748

> <Link to Ligand-Target Pair in BindingDB>
http://www.bindingdb.org/jsp/dbsearch/PrimarySearch_ki.jsp?energyterm=kJ/mole&tag=pol&polymerid=2622&target=Tyrosine-protein+phosphatase+non-receptor+type+1&column=ki&startPg=0&Increment=50&submit=Sea
rch
http://www.bindingdb.org/jsp/dbsearch/PrimarySearch_ki.jsp?energyterm=kJ/mole&tag=r21&monomerid=50115748&enzyme=Tyrosine-protein+phosphatase+non-receptor+type+1&column=ki&startPg=0&Increment=50&submit
=Search

> <PubChem CID of Ligand>
44301368

> <PubChem SID of Ligand>
104009596

> <ChEMBL ID of Ligand>
CHEMBL301436

> <ZINC ID of Ligand>
ZINC13443976

> <Number of Protein Chains in Target (bigger than 1 implies a multichain complex)>
1

> <BindingDB Target Chain Sequence>
MEMEKEFEQIDKSGSWAAIYQDIRHEASDFPCRVAKLPKNKNRNRYRDVSPFDHSRIKLHQEDNDYINASLIKMEEAQRSYILTQGPLPNTCGHFWEMVWEQKSRGVVMLNRVMEKGSLKCAQYWPQKEEKEMIFEDTNLKLTLISEDIKSYYTVRQLELENLTTQETREILHFHYTTWPDFGVPESPASFLNFLFKVRE
SGSLSPEHGPVVVHCSAGIGRSGTFCLADTCLLLMDKRKDPSSVDIKKVLLEMRKFRMGLIQTADQLRFSYLAVIEGAKFIMGDSSVQDQWKELSHEDLEPPPEHIPPPPRPPKRILEPHNGKCREFFPNHQWVKEETQEDKDCPIKEEKGSPLNAAPYGIESMSQDTEVRSRVVGGSLRGAQAASPAKGEPSLPEKDED
HALSYWKPFLVNMCVATVLTAGAYLCYRFLFNSNT

> <PDB ID(s) of Target Chain>
1BZJ,1G7G,1GFY,1JF7,1KAK,1KAV,1LQF,1NL9,1NNY,1NO6,1NZ7,1OEM,1OEO,1OES,1OET,1OEU,1OEV,1ONY,1ONZ,1PH0,1PXH,1PYN,1Q1M,1Q6J,1Q6M,1Q6N,1Q6P,1Q6S,1Q6T,1QXK,1SUG,1T48,1T49,1T4J,1WAX,1XBO,2AZR,2B07,2BGD,2BGE,
2CM2,2CM3,2CM7,2CM8,2CMA,2CMB,2CMC,2CNE,2CNF,2CNG,2CNH,2CNI,2F6T,2F6V,2F6W,2F6Y,2F6Z,2F70,2F71,2FJN,2H4G,2H4K,2HB1,2HNP,2HNQ,2QBP,2QBQ,2QBR,2QBS,2VEU,2VEV,2VEW,2VEX,2VEY,2ZMM,2ZN7,3A5J,3CWE,3D9C,3EAX,
3EB1,3EU0,3I7Z,3I80,3SME,4BJO,4I8N,4QBW,4Y14,5K9V,5K9W,5KA0,5KA1,5T19,6B90,6NTP,6W30,7KEY,7KLX,7LFO,7MN9,7MNA,8DU7,8G65,8G67,8G68,8G69,8G6A,8SKL

> <UniProt (SwissProt) Recommended Name of Target Chain>
Tyrosine-protein phosphatase non-receptor type 1

> <UniProt (SwissProt) Entry Name of Target Chain>
PTN1_HUMAN

> <UniProt (SwissProt) Primary ID of Target Chain>
P18031

> <UniProt (SwissProt) Secondary ID(s) of Target Chain>
Q5TGD8 Q9BQV9 Q9NQQ4

$$$$
Molecule
  SciTegic10242319433D

 67 72  0  0  0  0            999 V2000
    0.7132   -6.2942    0.0221 C   0  0
    1.2744   -5.0377   -0.0128 C   0  0
   -0.9906   -6.1455    0.0366 S   0  0
    0.1369   -3.9485   -0.0243 C   0  0
   -1.1575   -4.5299    0.0042 C   0  0
    1.4524   -7.6647    0.0370 C   0  0
   13.1976   -1.3058    0.0131 C   0  0
   11.6936   -1.1037   -0.1876 C   0  0  1  0  0  0
    2.8134   -4.6699   -0.0380 C   0  0
   11.1285   -2.4428    0.0844 O   0  0
    5.5617   -3.9058   -0.0695 C   0  0
    6.9887   -3.4956   -0.0687 C   0  0
    1.2257  -10.0857    0.0224 N   0  0
   11.1110    0.1139    0.6599 C   0  0
   13.9017   -0.4396    0.5423 O   0  0
    3.1923   -3.3970   -0.1922 C   0  0
    3.8990   -5.6761    0.1150 C   0  0
    5.1862   -5.3138    0.1059 C   0  0
    0.6071   -8.9692    0.0222 C   0  0
    4.6053   -2.9958   -0.2147 C   0  0
    7.9344   -4.3923    0.1957 C   0  0
    7.3745   -2.0972   -0.3440 C   0  0
    9.7138   -2.7298   -0.0064 C   0  0
   13.7643   -2.5342   -0.3083 O   0  0
    9.3441   -3.9895    0.2334 C   0  0
    8.6623   -1.7339   -0.3258 C   0  0
   11.5886    1.5464    0.2731 C   0  0
    0.2550   -2.6217   -0.0469 C   0  0
   -2.2865   -3.8334    0.0068 C   0  0
    0.5400  -11.3219    0.0082 C   0  0
   -0.8644   -8.9742    0.0058 C   0  0
   12.6414    1.7764   -0.5177 C   0  0
   10.8332    2.6971    0.7902 C   0  0
   -0.9725   -1.7942   -0.0468 C   0  0
   -2.1797   -2.3713   -0.0217 C   0  0
   -0.7903  -11.3640   -0.0064 C   0  0
   -1.5335  -10.1214   -0.0077 C   0  0
   13.0514    3.1463   -0.8456 C   0  0
   11.1966    3.9425    0.4818 C   0  0
   12.3617    4.1795   -0.3693 C   0  0
    2.0975   -7.6907   -0.8412 H   0  0
    2.0643   -7.6893    0.9387 H   0  0
   11.5274   -0.8824   -1.2419 H   0  0
   10.0257    0.0926    0.5603 H   0  0
   11.3841   -0.0521    1.7020 H   0  0
    2.4260   -2.6301   -0.3052 H   0  0
    3.6402   -6.7279    0.2367 H   0  0
    5.9619   -6.0694    0.2297 H   0  0
    4.8699   -1.9472   -0.3511 H   0  0
    7.6609   -5.4303    0.3851 H   0  0
    6.6057   -1.3563   -0.5633 H   0  0
   13.3193   -3.2880    0.2717 H   0  0
   10.1059   -4.7348    0.4622 H   0  0
    8.9392   -0.7030   -0.5464 H   0  0
    1.2390   -2.1533   -0.0653 H   0  0
   -3.2570   -4.3293    0.0293 H   0  0
    1.1079  -12.2523    0.0091 H   0  0
   -1.4090   -8.0299    0.0046 H   0  0
   13.2026    0.9351   -0.9242 H   0  0
    9.9679    2.5305    1.4317 H   0  0
   -0.8926   -0.7073   -0.0672 H   0  0
   -3.0800   -1.7569   -0.0225 H   0  0
   -1.3128  -12.3205   -0.0172 H   0  0
   -2.6234  -10.1274   -0.0195 H   0  0
   13.9213    3.3176   -1.4797 H   0  0
   10.6233    4.7865    0.8654 H   0  0
   12.6639    5.1982   -0.6125 H   0  0
  2  1  2  0
  3  1  1  0
  4  2  1  0
  5  3  1  0
  6  1  1  0
  7  8  1  0
 10  8  1  0
  9  2  1  0
 10 23  1  0
 11 18  1  0
 12 11  1  0
 13 19  2  0
 14  8  1  0
 15  7  2  0
 16  9  2  0
 17  9  1  0
 18 17  2  0
 19  6  1  0
 20 16  1  0
 21 12  2  0
 22 12  1  0
 23 26  1  0
 24  7  1  0
 25 21  1  0
 26 22  2  0
 27 14  1  0
 28  4  2  0
 29  5  2  0
 30 13  1  0
 31 19  1  0
 32 27  2  0
 33 27  1  0
 34 28  1  0
 35 29  1  0
 36 37  1  0
 37 31  2  0
 38 32  1  0
 39 33  2  0
 40 39  1  0
  4  5  1  0
 34 35  2  0
 20 11  2  0
 30 36  2  0
 25 23  2  0
 38 40  2  0
  6 41  1  0
  6 42  1  0
  8 43  1  0
 14 44  1  0
 14 45  1  0
 16 46  1  0
 17 47  1  0
 18 48  1  0
 20 49  1  0
 21 50  1  0
 22 51  1  0
 24 52  1  0
 25 53  1  0
 26 54  1  0
 28 55  1  0
 29 56  1  0
 30 57  1  0
 31 58  1  0
 32 59  1  0
 33 60  1  0
 34 61  1  0
 35 62  1  0
 36 63  1  0
 37 64  1  0
 38 65  1  0
 39 66  1  0
 40 67  1  0
M  END
> <Name>
Molecule

> <Clean Energy>
47.1882

> <From>
www.bindingDB.org

> <BindingDB Reactant_set_id>
50154578

> <Ligand InChI>
InChI=1S/C35H27NO3S/c37-35(38)31(22-24-8-2-1-3-9-24)39-29-19-17-26(18-20-29)25-13-15-27(16-14-25)34-30-11-4-5-12-32(30)40-33(34)23-28-10-6-7-21-36-28/h1-21,31H,22-23H2,(H,37,38)

> <Ligand InChI Key>
HGYYXEMFBKZZRX-UHFFFAOYSA-N

> <BindingDB MonomerID>
50086895

> <BindingDB Ligand Name>
3-Phenyl-2-[4'-(2-pyridin-2-ylmethyl-benzo[b]thiophen-3-yl)-biphenyl-4-yloxy]-propionic acid::CHEMBL24443

> <Target Name>
Tyrosine-protein phosphatase non-receptor type 1

> <Target Source Organism According to Curator or DataSource>
Homo sapiens

> <IC50 (nM)>
1550

> <Curation/DataSource>
ChEMBL

> <Article DOI>
10.1021/jm990560c

> <BindingDB Entry DOI>
10.7270/Q2W958FT

> <PMID>
10753467

> <Authors>
Malamas, MS; Sredy, J; Moxham, C; Katz, A; Xu, W; McDevitt, R; Adebayo, FO; Sawicki, DR; Seestaller, L; Sullivan, D; Taylor, JR

> <Institution>
Wyeth-Ayerst Research

> <Link to Ligand in BindingDB>
http://www.bindingdb.org/bind/chemsearch/marvin/MolStructure.jsp?monomerid=50086895

> <Link to Ligand-Target Pair in BindingDB>
http://www.bindingdb.org/jsp/dbsearch/PrimarySearch_ki.jsp?energyterm=kJ/mole&tag=pol&polymerid=2622&target=Tyrosine-protein+phosphatase+non-receptor+type+1&column=ki&startPg=0&Increment=50&submit=Sea
rch
http://www.bindingdb.org/jsp/dbsearch/PrimarySearch_ki.jsp?energyterm=kJ/mole&tag=r21&monomerid=50086895&enzyme=Tyrosine-protein+phosphatase+non-receptor+type+1&column=ki&startPg=0&Increment=50&submit
=Search

> <PubChem CID of Ligand>
22462615

> <PubChem SID of Ligand>
103986006

> <ChEMBL ID of Ligand>
CHEMBL24443

> <ZINC ID of Ligand>
ZINC28756353

> <Number of Protein Chains in Target (bigger than 1 implies a multichain complex)>
1

> <BindingDB Target Chain Sequence>
MEMEKEFEQIDKSGSWAAIYQDIRHEASDFPCRVAKLPKNKNRNRYRDVSPFDHSRIKLHQEDNDYINASLIKMEEAQRSYILTQGPLPNTCGHFWEMVWEQKSRGVVMLNRVMEKGSLKCAQYWPQKEEKEMIFEDTNLKLTLISEDIKSYYTVRQLELENLTTQETREILHFHYTTWPDFGVPESPASFLNFLFKVRE
SGSLSPEHGPVVVHCSAGIGRSGTFCLADTCLLLMDKRKDPSSVDIKKVLLEMRKFRMGLIQTADQLRFSYLAVIEGAKFIMGDSSVQDQWKELSHEDLEPPPEHIPPPPRPPKRILEPHNGKCREFFPNHQWVKEETQEDKDCPIKEEKGSPLNAAPYGIESMSQDTEVRSRVVGGSLRGAQAASPAKGEPSLPEKDED
HALSYWKPFLVNMCVATVLTAGAYLCYRFLFNSNT

> <PDB ID(s) of Target Chain>
1BZJ,1G7G,1GFY,1JF7,1KAK,1KAV,1LQF,1NL9,1NNY,1NO6,1NZ7,1OEM,1OEO,1OES,1OET,1OEU,1OEV,1ONY,1ONZ,1PH0,1PXH,1PYN,1Q1M,1Q6J,1Q6M,1Q6N,1Q6P,1Q6S,1Q6T,1QXK,1SUG,1T48,1T49,1T4J,1WAX,1XBO,2AZR,2B07,2BGD,2BGE,
2CM2,2CM3,2CM7,2CM8,2CMA,2CMB,2CMC,2CNE,2CNF,2CNG,2CNH,2CNI,2F6T,2F6V,2F6W,2F6Y,2F6Z,2F70,2F71,2FJN,2H4G,2H4K,2HB1,2HNP,2HNQ,2QBP,2QBQ,2QBR,2QBS,2VEU,2VEV,2VEW,2VEX,2VEY,2ZMM,2ZN7,3A5J,3CWE,3D9C,3EAX,
3EB1,3EU0,3I7Z,3I80,3SME,4BJO,4I8N,4QBW,4Y14,5K9V,5K9W,5KA0,5KA1,5T19,6B90,6NTP,6W30,7KEY,7KLX,7LFO,7MN9,7MNA,8DU7,8G65,8G67,8G68,8G69,8G6A,8SKL

> <UniProt (SwissProt) Recommended Name of Target Chain>
Tyrosine-protein phosphatase non-receptor type 1

> <UniProt (SwissProt) Entry Name of Target Chain>
PTN1_HUMAN

> <UniProt (SwissProt) Primary ID of Target Chain>
P18031

> <UniProt (SwissProt) Secondary ID(s) of Target Chain>
Q5TGD8 Q9BQV9 Q9NQQ4

$$$$
Molecule
  SciTegic10242319433D

 26 26  0  0  0  0            999 V2000
    1.6197   -0.6724    0.0001 C   0  0
    1.6300    0.7142    0.0002 C   0  0
    0.4328    1.4189    0.0002 C   0  0
   -0.7916    0.7487    0.0002 C   0  0
   -0.7969   -0.6535    0.0001 C   0  0
    0.4084   -1.3496    0.0001 C   0  0
    2.8172   -1.3797    0.0001 O   0  0
   -2.0603    1.5787    0.0002 C   0  0
   -1.9766    2.9660    0.0002 O   0  0
   -3.1869    1.0708    0.0002 O   0  0
    0.4785    2.8079    0.0002 O   0  0
   -2.0822   -1.4579    0.0001 C   0  0
   -1.7937   -2.9706   -0.0001 C   0  0
   -3.1287   -3.7381   -0.0002 C   0  0
    2.5782    1.2517    0.0002 H   0  0
    0.4008   -2.4396    0.0001 H   0  0
    3.3706   -1.1318   -0.8571 H   0  0
   -1.4615    3.2861    0.8574 H   0  0
    0.9846    3.1419    0.8574 H   0  0
   -2.6587   -1.2064    0.8903 H   0  0
   -2.6588   -1.2062   -0.8899 H   0  0
   -1.2220   -3.2329   -0.8903 H   0  0
   -1.2219   -3.2332    0.8900 H   0  0
   -2.9320   -4.8102   -0.0004 H   0  0
   -3.7002   -3.4739   -0.8900 H   0  0
   -3.7001   -3.4742    0.8898 H   0  0
  1  2  4  0
  2  3  4  0
  3  4  4  0
  4  5  4  0
  5  6  4  0
  6  1  4  0
  1  7  1  0
  4  8  1  0
  8  9  1  0
  8 10  2  0
  3 11  1  0
  5 12  1  0
 12 13  1  0
 13 14  1  0
  2 15  1  0
  6 16  1  0
  7 17  1  0
  9 18  1  0
 11 19  1  0
 12 20  1  0
 12 21  1  0
 13 22  1  0
 13 23  1  0
 14 24  1  0
 14 25  1  0
 14 26  1  0
M  END
> <Name>
Molecule

> <Clean Energy>
1.32265

> <From>
www.bindingDB.org

> <BindingDB Reactant_set_id>
50889392

> <Ligand InChI>
InChI=1S/C10H12O4/c1-2-3-6-4-7(11)5-8(12)9(6)10(13)14/h4-5,11-12H,2-3H2,1H3,(H,13,14)

> <Ligand InChI Key>
RIVVNGIVVYEIRS-UHFFFAOYSA-N

> <BindingDB MonomerID>
50268485

> <BindingDB Ligand Name>
CHEMBL3770020

> <Target Name>
Tyrosine-protein phosphatase non-receptor type 1

> <Target Source Organism According to Curator or DataSource>
Homo sapiens

> <IC50 (nM)>
1580

> <Curation/DataSource>
ChEMBL

> <Article DOI>
10.1016/j.bmcl.2017.06.001

> <BindingDB Entry DOI>
10.7270/Q2G1639V

> <PMID>
28642102

> <Authors>
Sun, W; Zhuang, C; Li, X; Zhang, B; Lu, X; Zheng, Z; Dong, Y

> <Institution>
Dalian University of Technology

> <Link to Ligand in BindingDB>
http://www.bindingdb.org/bind/chemsearch/marvin/MolStructure.jsp?monomerid=50268485

> <Link to Ligand-Target Pair in BindingDB>
http://www.bindingdb.org/jsp/dbsearch/PrimarySearch_ki.jsp?energyterm=kJ/mole&tag=pol&polymerid=2622&target=Tyrosine-protein+phosphatase+non-receptor+type+1&column=ki&startPg=0&Increment=50&submit=Sea
rch
http://www.bindingdb.org/jsp/dbsearch/PrimarySearch_ki.jsp?energyterm=kJ/mole&tag=r21&monomerid=50268485&enzyme=Tyrosine-protein+phosphatase+non-receptor+type+1&column=ki&startPg=0&Increment=50&submit
=Search

> <PubChem CID of Ligand>
20834

> <PubChem SID of Ligand>
404914739

> <Number of Protein Chains in Target (bigger than 1 implies a multichain complex)>
1

> <BindingDB Target Chain Sequence>
MEMEKEFEQIDKSGSWAAIYQDIRHEASDFPCRVAKLPKNKNRNRYRDVSPFDHSRIKLHQEDNDYINASLIKMEEAQRSYILTQGPLPNTCGHFWEMVWEQKSRGVVMLNRVMEKGSLKCAQYWPQKEEKEMIFEDTNLKLTLISEDIKSYYTVRQLELENLTTQETREILHFHYTTWPDFGVPESPASFLNFLFKVRE
SGSLSPEHGPVVVHCSAGIGRSGTFCLADTCLLLMDKRKDPSSVDIKKVLLEMRKFRMGLIQTADQLRFSYLAVIEGAKFIMGDSSVQDQWKELSHEDLEPPPEHIPPPPRPPKRILEPHNGKCREFFPNHQWVKEETQEDKDCPIKEEKGSPLNAAPYGIESMSQDTEVRSRVVGGSLRGAQAASPAKGEPSLPEKDED
HALSYWKPFLVNMCVATVLTAGAYLCYRFLFNSNT

> <PDB ID(s) of Target Chain>
1BZJ,1G7G,1GFY,1JF7,1KAK,1KAV,1LQF,1NL9,1NNY,1NO6,1NZ7,1OEM,1OEO,1OES,1OET,1OEU,1OEV,1ONY,1ONZ,1PH0,1PXH,1PYN,1Q1M,1Q6J,1Q6M,1Q6N,1Q6P,1Q6S,1Q6T,1QXK,1SUG,1T48,1T49,1T4J,1WAX,1XBO,2AZR,2B07,2BGD,2BGE,
2CM2,2CM3,2CM7,2CM8,2CMA,2CMB,2CMC,2CNE,2CNF,2CNG,2CNH,2CNI,2F6T,2F6V,2F6W,2F6Y,2F6Z,2F70,2F71,2FJN,2H4G,2H4K,2HB1,2HNP,2HNQ,2QBP,2QBQ,2QBR,2QBS,2VEU,2VEV,2VEW,2VEX,2VEY,2ZMM,2ZN7,3A5J,3CWE,3D9C,3EAX,
3EB1,3EU0,3I7Z,3I80,3SME,4BJO,4I8N,4QBW,4Y14,5K9V,5K9W,5KA0,5KA1,5T19,6B90,6NTP,6W30,7KEY,7KLX,7LFO,7MN9,7MNA,8DU7,8G65,8G67,8G68,8G69,8G6A,8SKL

> <UniProt (SwissProt) Recommended Name of Target Chain>
Tyrosine-protein phosphatase non-receptor type 1

> <UniProt (SwissProt) Entry Name of Target Chain>
PTN1_HUMAN

> <UniProt (SwissProt) Primary ID of Target Chain>
P18031

> <UniProt (SwissProt) Secondary ID(s) of Target Chain>
Q5TGD8 Q9BQV9 Q9NQQ4

$$$$
Molecule
  SciTegic10242319433D

 51 54  0  0  0  0            999 V2000
    2.0197  -11.0558   -0.6218 C   0  0
    1.8571  -12.3165    0.0160 C   0  0
    2.9407  -12.9231    0.5276 C   0  0
    4.2610  -12.2349    0.4726 C   0  0
    4.3426  -11.0257   -0.0500 C   0  0
    3.1772  -10.4283   -0.6387 C   0  0
    0.5591  -12.9118    0.1688 O   0  0
   -0.6746  -12.2536   -0.4319 C   0  0
   -1.2169  -10.7895   -0.0804 C   0  0
   -0.4554   -9.7844    0.3645 C   0  0
   -1.0021   -8.4420    0.5849 C   0  0
   -2.2867   -8.2022    0.3458 C   0  0
   -3.1453   -9.2880   -0.1219 C   0  0
   -2.6418  -10.5074   -0.3262 C   0  0
    5.5847  -10.2318   -0.0277 C   0  0
    5.5915   -8.9100   -0.0488 C   0  0
    6.7606   -8.0593   -0.0245 C   0  0
    6.4665   -6.5935   -0.0144 N   0  0
    5.0525   -6.3859   -0.0281 C   0  0
    4.2564   -7.8499   -0.0592 S   0  0
    7.9009   -8.5863   -0.0110 O   0  0
    4.5002   -5.2778   -0.0201 O   0  0
    7.3627   -5.3907    0.0095 C   0  0
    8.9055   -5.4742    0.0059 C   0  0
    9.5765   -6.6142    0.0027 C   0  0
   11.0185   -6.6516    0.0002 C   0  0
   11.7062   -5.5152    0.0010 C   0  0
   10.9984   -4.2360    0.0042 C   0  0
    9.6654   -4.2135    0.0067 C   0  0
   13.1557   -5.5714   -0.0009 C   0  0
   13.7997   -6.8038   -0.0025 O   0  0
   13.8154   -4.5244   -0.0003 O   0  0
    1.1611  -10.5956   -1.1110 H   0  0
    2.8548  -13.9113    0.9795 H   0  0
    5.1530  -12.7264    0.8610 H   0  0
    3.2514   -9.4455   -1.1042 H   0  0
   -0.4998  -12.2442   -1.5078 H   0  0
   -1.4999  -12.9279   -0.2032 H   0  0
    0.5994   -9.9680    0.5688 H   0  0
   -0.3553   -7.6417    0.9444 H   0  0
   -2.6968   -7.2037    0.4973 H   0  0
   -4.2034   -9.1012   -0.3052 H   0  0
   -3.2943  -11.3057   -0.6799 H   0  0
    6.5389  -10.7576    0.0078 H   0  0
    7.0946   -4.8027   -0.8683 H   0  0
    7.0968   -4.8396    0.9116 H   0  0
    9.0232   -7.5533    0.0020 H   0  0
   11.5414   -7.6080   -0.0022 H   0  0
   11.5599   -3.3017    0.0045 H   0  0
    9.1373   -3.2599    0.0094 H   0  0
   14.4000   -6.8845   -0.8601 H   0  0
  3  4  1  0
 15 16  2  0
 16 17  1  0
  7  8  1  0
  8  9  1  0
  4  5  2  0
 17 18  1  0
 18 19  1  0
 19 20  1  0
 20 16  1  0
  9 10  2  0
 17 21  2  0
  2  3  2  0
 19 22  2  0
 10 11  1  0
 18 23  1  0
  5  6  1  0
 23 24  1  0
 11 12  2  0
 24 25  2  0
  6  1  2  0
 25 26  1  0
 12 13  1  0
 26 27  2  0
  1  2  1  0
 27 28  1  0
 13 14  2  0
 28 29  2  0
 29 24  1  0
 14  9  1  0
  2  7  1  0
  5 15  1  0
 30 31  1  0
 30 32  2  0
 27 30  1  0
  1 33  1  0
  3 34  1  0
  4 35  1  0
  6 36  1  0
  8 37  1  0
  8 38  1  0
 10 39  1  0
 11 40  1  0
 12 41  1  0
 13 42  1  0
 14 43  1  0
 15 44  1  0
 23 45  1  0
 23 46  1  0
 25 47  1  0
 26 48  1  0
 28 49  1  0
 29 50  1  0
 31 51  1  0
M  END
> <Name>
Molecule

> <Clean Energy>
52.2871

> <From>
www.bindingDB.org

> <BindingDB Reactant_set_id>
50420826

> <Ligand InChI>
InChI=1S/C25H19NO5S/c27-23-22(32-25(30)26(23)15-18-6-10-20(11-7-18)24(28)29)14-17-8-12-21(13-9-17)31-16-19-4-2-1-3-5-19/h1-14H,15-16H2,(H,28,29)/b22-14-

> <Ligand InChI Key>
BCWFPQLVRPXRGU-HMAPJEAMSA-N

> <BindingDB MonomerID>
50214527

> <BindingDB Ligand Name>
4-((5-(4-(benzyloxy)benzylidene)-2,4-dioxothiazolidin-3-yl)methyl)benzoic acid::4-[5-(4-benzyloxybenzylidene)-2,4-dioxothiazolidin-3-yl]methylbenzoic acid::CHEMBL235595

> <Target Name>
Tyrosine-protein phosphatase non-receptor type 1

> <Target Source Organism According to Curator or DataSource>
Homo sapiens

> <IC50 (nM)>
1600

> <Curation/DataSource>
ChEMBL

> <Article DOI>
10.1016/j.bmc.2008.06.014

> <BindingDB Entry DOI>
10.7270/Q2PC325T

> <PMID>
18579388

> <Authors>
Ling, Q; Huang, Y; Zhou, Y; Cai, Z; Xiong, B; Zhang, Y; Ma, L; Wang, X; Li, X; Li, J; Shen, J

> <Institution>
Chinese Academy of Sciences

> <Link to Ligand in BindingDB>
http://www.bindingdb.org/bind/chemsearch/marvin/MolStructure.jsp?monomerid=50214527

> <Link to Ligand-Target Pair in BindingDB>
http://www.bindingdb.org/jsp/dbsearch/PrimarySearch_ki.jsp?energyterm=kJ/mole&tag=pol&polymerid=2622&target=Tyrosine-protein+phosphatase+non-receptor+type+1&column=ki&startPg=0&Increment=50&submit=Sea
rch
http://www.bindingdb.org/jsp/dbsearch/PrimarySearch_ki.jsp?energyterm=kJ/mole&tag=r21&monomerid=50214527&enzyme=Tyrosine-protein+phosphatase+non-receptor+type+1&column=ki&startPg=0&Increment=50&submit
=Search

> <PubChem CID of Ligand>
18864315

> <PubChem SID of Ligand>
104089502

> <ChEMBL ID of Ligand>
CHEMBL235595

> <ZINC ID of Ligand>
ZINC26920345

> <Number of Protein Chains in Target (bigger than 1 implies a multichain complex)>
1

> <BindingDB Target Chain Sequence>
MEMEKEFEQIDKSGSWAAIYQDIRHEASDFPCRVAKLPKNKNRNRYRDVSPFDHSRIKLHQEDNDYINASLIKMEEAQRSYILTQGPLPNTCGHFWEMVWEQKSRGVVMLNRVMEKGSLKCAQYWPQKEEKEMIFEDTNLKLTLISEDIKSYYTVRQLELENLTTQETREILHFHYTTWPDFGVPESPASFLNFLFKVRE
SGSLSPEHGPVVVHCSAGIGRSGTFCLADTCLLLMDKRKDPSSVDIKKVLLEMRKFRMGLIQTADQLRFSYLAVIEGAKFIMGDSSVQDQWKELSHEDLEPPPEHIPPPPRPPKRILEPHNGKCREFFPNHQWVKEETQEDKDCPIKEEKGSPLNAAPYGIESMSQDTEVRSRVVGGSLRGAQAASPAKGEPSLPEKDED
HALSYWKPFLVNMCVATVLTAGAYLCYRFLFNSNT

> <PDB ID(s) of Target Chain>
1BZJ,1G7G,1GFY,1JF7,1KAK,1KAV,1LQF,1NL9,1NNY,1NO6,1NZ7,1OEM,1OEO,1OES,1OET,1OEU,1OEV,1ONY,1ONZ,1PH0,1PXH,1PYN,1Q1M,1Q6J,1Q6M,1Q6N,1Q6P,1Q6S,1Q6T,1QXK,1SUG,1T48,1T49,1T4J,1WAX,1XBO,2AZR,2B07,2BGD,2BGE,
2CM2,2CM3,2CM7,2CM8,2CMA,2CMB,2CMC,2CNE,2CNF,2CNG,2CNH,2CNI,2F6T,2F6V,2F6W,2F6Y,2F6Z,2F70,2F71,2FJN,2H4G,2H4K,2HB1,2HNP,2HNQ,2QBP,2QBQ,2QBR,2QBS,2VEU,2VEV,2VEW,2VEX,2VEY,2ZMM,2ZN7,3A5J,3CWE,3D9C,3EAX,
3EB1,3EU0,3I7Z,3I80,3SME,4BJO,4I8N,4QBW,4Y14,5K9V,5K9W,5KA0,5KA1,5T19,6B90,6NTP,6W30,7KEY,7KLX,7LFO,7MN9,7MNA,8DU7,8G65,8G67,8G68,8G69,8G6A,8SKL

> <UniProt (SwissProt) Recommended Name of Target Chain>
Tyrosine-protein phosphatase non-receptor type 1

> <UniProt (SwissProt) Entry Name of Target Chain>
PTN1_HUMAN

> <UniProt (SwissProt) Primary ID of Target Chain>
P18031

> <UniProt (SwissProt) Secondary ID(s) of Target Chain>
Q5TGD8 Q9BQV9 Q9NQQ4

$$$$
Molecule
  SciTegic10242319433D

 79 83  0  0  0  0            999 V2000
    5.9422    4.4812   -0.0005 C   0  0
    6.6163    3.3262   -0.0008 C   0  0
    8.1067    3.3291   -0.0017 C   0  0
    8.7740    4.4894   -0.0023 C   0  0
    8.0188    5.7438   -0.0021 C   0  0
    6.6869    5.7390   -0.0011 C   0  0
    4.4483    4.5501    0.0003 C   0  0
    3.9135    5.6649    0.0008 O   0  0
    3.5731    3.3544    0.0005 C   0  0
    2.1888    3.5287    0.0012 O   0  0
    4.0387    2.2102    0.0000 O   0  0
   10.2048    4.5536   -0.0031 O   0  0
   10.8399    3.2601   -0.0045 C   0  0
   12.3778    3.3960    0.0121 C   0  0
   13.2083    2.3251   -0.0043 C   0  0
   14.5961    2.6244    0.0218 C   0  0
   15.1791    3.8007    0.0025 C   0  0
   14.3255    4.9757    0.0011 C   0  0
   12.9913    4.7864   -0.0099 C   0  0
   16.7495    3.7783    0.0090 C   0  0
   17.4466    5.0331    0.0026 O   0  0
   18.8983    4.8466    0.0014 C   0  0
   19.5472    3.4946    0.0044 C   0  0
   20.8885    3.3819    0.0034 C   0  0
   21.7411    4.5999   -0.0001 C   0  0
   21.1505    5.7939   -0.0028 C   0  0
   19.6831    5.9229   -0.0021 C   0  0
   23.2483    4.5639   -0.0006 C   0  0
   24.0495    3.3164    0.0010 C   0  0
   23.8570    5.6404   -0.0023 O   0  0
   23.5141    2.2039    0.0023 O   0  0
   25.4458    3.4066    0.0007 O   0  0
   12.7207    0.7924    0.0230 C   0  0
   11.5042    0.5804    0.0216 O   0  0
   13.4723   -0.3928    0.0199 N   0  0
   14.9237   -0.7550    0.0151 C   0  0
   15.2997   -2.0349    0.0608 C   0  0
   16.7602   -2.3721    0.0459 C   0  0
   17.6864   -1.3966   -0.0156 C   0  0
   17.2449   -0.0793   -0.0626 C   0  0
   15.9658    0.1964   -0.0515 C   0  0
   19.1183   -1.5113   -0.0482 O   0  0
   19.8380   -2.7174   -0.0076 C   0  0
   19.2816   -3.9216    0.0818 C   0  0
   20.0977   -5.0986    0.1354 C   0  0
   21.4205   -4.9983    0.0851 C   0  0
   22.0558   -3.6951   -0.0252 C   0  0
   21.2986   -2.6055   -0.0667 C   0  0
   22.3869   -6.4515    0.2153 S   0  0
   21.2771   -7.8715    0.1410 C   0  0
   22.5494   -8.3076    0.4371 F   0  0
   20.9068   -7.7065   -1.1663 F   0  0
   21.2797   -9.2479    0.1413 F   0  0
    6.0744    2.3804   -0.0004 H   0  0
    8.6535    2.3861   -0.0019 H   0  0
    8.5534    6.6937   -0.0028 H   0  0
    6.1454    6.6850   -0.0007 H   0  0
    1.9033    4.0634    0.8586 H   0  0
   10.5220    2.7067    0.8791 H   0  0
   10.5403    2.7175   -0.9011 H   0  0
   15.2652    1.7650    0.0634 H   0  0
   14.7506    5.9793    0.0087 H   0  0
   12.3335    5.6551   -0.0353 H   0  0
   17.0611    3.2404    0.9044 H   0  0
   17.0683    3.2273   -0.8758 H   0  0
   18.9286    2.5972    0.0073 H   0  0
   21.3510    2.3948    0.0053 H   0  0
   21.7656    6.6938   -0.0055 H   0  0
   19.2321    6.9152   -0.0046 H   0  0
   25.7635    3.9219   -0.8573 H   0  0
   12.8462   -1.2604    0.0213 H   0  0
   14.5523   -2.8268    0.1086 H   0  0
   17.0749   -3.4150    0.0852 H   0  0
   17.9713    0.7320   -0.1092 H   0  0
   15.6807    1.2475   -0.0975 H   0  0
   18.1960   -4.0145    0.1147 H   0  0
   19.6304   -6.0799    0.2178 H   0  0
   23.1417   -3.6138   -0.0734 H   0  0
   21.7649   -1.6233   -0.1450 H   0  0
 25 26  2  0
 12 13  1  0
 26 27  1  0
 27 22  2  0
  1  2  2  0
 25 28  1  0
 13 14  1  0
 28 29  1  0
  1  7  1  0
 28 30  2  0
 14 15  2  0
 29 31  2  0
  3  4  2  0
 29 32  1  0
 15 16  1  0
 15 33  1  0
  7  8  2  0
 33 34  2  0
 16 17  2  0
 33 35  1  0
 35 36  1  0
 17 18  1  0
 36 37  2  0
  7  9  1  0
 37 38  1  0
 18 19  2  0
 38 39  2  0
 19 14  1  0
 39 40  1  0
  4  5  1  0
 40 41  2  0
 41 36  1  0
 17 20  1  0
 39 42  1  0
  9 10  1  0
 42 43  1  0
 20 21  1  0
 43 44  2  0
  2  3  1  0
 44 45  1  0
 21 22  1  0
 45 46  2  0
  9 11  2  0
 46 47  1  0
 22 23  1  0
 47 48  2  0
 48 43  1  0
  5  6  2  0
 46 49  1  0
 23 24  2  0
 49 50  1  0
  4 12  1  0
 50 51  1  0
 24 25  1  0
 50 52  1  0
  6  1  1  0
 50 53  1  0
  2 54  1  0
  3 55  1  0
  5 56  1  0
  6 57  1  0
 10 58  1  0
 13 59  1  0
 13 60  1  0
 16 61  1  0
 18 62  1  0
 19 63  1  0
 20 64  1  0
 20 65  1  0
 23 66  1  0
 24 67  1  0
 26 68  1  0
 27 69  1  0
 32 70  1  0
 35 71  1  0
 37 72  1  0
 38 73  1  0
 40 74  1  0
 41 75  1  0
 44 76  1  0
 45 77  1  0
 47 78  1  0
 48 79  1  0
M  END
> <Name>
Molecule

> <Clean Energy>
122.132

> <From>
www.bindingDB.org

> <BindingDB Reactant_set_id>
50598529

> <Ligand InChI>
InChI=1S/C38H26F3NO10S/c39-38(40,41)53-31-17-15-30(16-18-31)52-29-13-7-26(8-14-29)42-35(45)32-19-22(20-50-27-9-3-23(4-10-27)33(43)36(46)47)1-2-25(32)21-51-28-11-5-24(6-12-28)34(44)37(48)49/h1-19H,20-2
1H2,(H,42,45)(H,46,47)(H,48,49)

> <Ligand InChI Key>
JJANBXHKBYNLKS-UHFFFAOYSA-N

> <BindingDB MonomerID>
50326497

> <BindingDB Ligand Name>
4, 4'-[[2-[[(4-(4-Trifluoromethylthio)phenoxyphenyl)amino]carbonyl]-1, 4-phenylene]bis(methyleneoxy)]bis[alpha-oxobenzeneacetic acid]::CHEMBL1240789

> <Target Name>
Tyrosine-protein phosphatase non-receptor type 1

> <Target Source Organism According to Curator or DataSource>
Homo sapiens

> <IC50 (nM)>
1600

> <Curation/DataSource>
ChEMBL

> <Article DOI>
10.1021/jm100528p

> <BindingDB Entry DOI>
10.7270/Q2988777

> <PMID>
20731359

> <Authors>
Comeau, AB; Critton, DA; Page, R; Seto, CT

> <Institution>
Brown University

> <Link to Ligand in BindingDB>
http://www.bindingdb.org/bind/chemsearch/marvin/MolStructure.jsp?monomerid=50326497

> <Link to Ligand-Target Pair in BindingDB>
http://www.bindingdb.org/jsp/dbsearch/PrimarySearch_ki.jsp?energyterm=kJ/mole&tag=pol&polymerid=2622&target=Tyrosine-protein+phosphatase+non-receptor+type+1&column=ki&startPg=0&Increment=50&submit=Sea
rch
http://www.bindingdb.org/jsp/dbsearch/PrimarySearch_ki.jsp?energyterm=kJ/mole&tag=r21&monomerid=50326497&enzyme=Tyrosine-protein+phosphatase+non-receptor+type+1&column=ki&startPg=0&Increment=50&submit
=Search

> <PubChem CID of Ligand>
46938543

> <PubChem SID of Ligand>
123105612

> <ChEMBL ID of Ligand>
CHEMBL1240789

> <ZINC ID of Ligand>
ZINC95615270

> <Number of Protein Chains in Target (bigger than 1 implies a multichain complex)>
1

> <BindingDB Target Chain Sequence>
MEMEKEFEQIDKSGSWAAIYQDIRHEASDFPCRVAKLPKNKNRNRYRDVSPFDHSRIKLHQEDNDYINASLIKMEEAQRSYILTQGPLPNTCGHFWEMVWEQKSRGVVMLNRVMEKGSLKCAQYWPQKEEKEMIFEDTNLKLTLISEDIKSYYTVRQLELENLTTQETREILHFHYTTWPDFGVPESPASFLNFLFKVRE
SGSLSPEHGPVVVHCSAGIGRSGTFCLADTCLLLMDKRKDPSSVDIKKVLLEMRKFRMGLIQTADQLRFSYLAVIEGAKFIMGDSSVQDQWKELSHEDLEPPPEHIPPPPRPPKRILEPHNGKCREFFPNHQWVKEETQEDKDCPIKEEKGSPLNAAPYGIESMSQDTEVRSRVVGGSLRGAQAASPAKGEPSLPEKDED
HALSYWKPFLVNMCVATVLTAGAYLCYRFLFNSNT

> <PDB ID(s) of Target Chain>
1BZJ,1G7G,1GFY,1JF7,1KAK,1KAV,1LQF,1NL9,1NNY,1NO6,1NZ7,1OEM,1OEO,1OES,1OET,1OEU,1OEV,1ONY,1ONZ,1PH0,1PXH,1PYN,1Q1M,1Q6J,1Q6M,1Q6N,1Q6P,1Q6S,1Q6T,1QXK,1SUG,1T48,1T49,1T4J,1WAX,1XBO,2AZR,2B07,2BGD,2BGE,
2CM2,2CM3,2CM7,2CM8,2CMA,2CMB,2CMC,2CNE,2CNF,2CNG,2CNH,2CNI,2F6T,2F6V,2F6W,2F6Y,2F6Z,2F70,2F71,2FJN,2H4G,2H4K,2HB1,2HNP,2HNQ,2QBP,2QBQ,2QBR,2QBS,2VEU,2VEV,2VEW,2VEX,2VEY,2ZMM,2ZN7,3A5J,3CWE,3D9C,3EAX,
3EB1,3EU0,3I7Z,3I80,3SME,4BJO,4I8N,4QBW,4Y14,5K9V,5K9W,5KA0,5KA1,5T19,6B90,6NTP,6W30,7KEY,7KLX,7LFO,7MN9,7MNA,8DU7,8G65,8G67,8G68,8G69,8G6A,8SKL

> <UniProt (SwissProt) Recommended Name of Target Chain>
Tyrosine-protein phosphatase non-receptor type 1

> <UniProt (SwissProt) Entry Name of Target Chain>
PTN1_HUMAN

> <UniProt (SwissProt) Primary ID of Target Chain>
P18031

> <UniProt (SwissProt) Secondary ID(s) of Target Chain>
Q5TGD8 Q9BQV9 Q9NQQ4

$$$$
Molecule
  SciTegic10242319433D

 54 57  0  0  0  0            999 V2000
   -9.0595  -19.5446   -0.2054 C   0  0
   -9.0707  -20.8764   -0.1207 C   0  0
   -7.8106  -21.6178    0.0027 C   0  0
   -7.7845  -18.8145   -0.1756 C   0  0
   -6.6491  -19.4952   -0.0671 C   0  0
   -6.6560  -20.9545    0.0274 C   0  0
   -5.3678  -21.6788    0.1610 C   0  0
   -4.2154  -20.9972    0.2089 C   0  0
   -5.3599  -18.8492   -0.0144 C   0  0
   -4.2541  -19.5352    0.1202 C   0  0
   -3.2211  -18.6890    0.1693 O   0  0
   -3.7813  -17.4283    0.0450 C   0  0
   -5.0590  -17.4878   -0.0732 N   0  0
   -2.9876  -16.1957    0.0615 C   0  0
   -1.6924  -16.2689    0.3563 C   0  0
   -0.8736  -15.0605    0.3960 C   0  0
   -1.4024  -13.8669    0.1133 C   0  0
   -2.8406  -13.7919   -0.2183 C   0  0
   -3.5937  -14.8951   -0.2329 C   0  0
   -0.6332  -12.6420    0.1386 O   0  0
    0.7884  -12.7298    0.5327 C   0  0
    1.7105  -13.4478   -0.5040 C   0  0
    3.1217  -13.4347   -0.0549 N   0  0
    3.8977  -14.3397   -0.9153 C   0  0
    3.6678  -12.0624   -0.1769 C   0  0
    5.1701  -12.0517    0.1976 C   0  0
    5.7612  -10.6494   -0.0486 C   0  0
    7.2681  -10.6630    0.2752 C   0  0
   -9.9978  -18.9974   -0.2969 H   0  0
  -10.0182  -21.4147   -0.1431 H   0  0
   -7.8195  -22.7054    0.0736 H   0  0
   -7.7706  -17.7266   -0.2419 H   0  0
   -5.3591  -22.7671    0.2202 H   0  0
   -3.2653  -21.5213    0.3122 H   0  0
   -1.2394  -17.2371    0.5696 H   0  0
    0.1816  -15.1333    0.6595 H   0  0
   -3.2911  -12.8275   -0.4532 H   0  0
   -4.6569  -14.8276   -0.4634 H   0  0
    1.1638  -11.7166    0.6764 H   0  0
    0.8464  -13.2762    1.4741 H   0  0
    1.3821  -14.4808   -0.6182 H   0  0
    1.6366  -12.9345   -1.4627 H   0  0
    4.9399  -14.3405   -0.5963 H   0  0
    3.8351  -14.0011   -1.9496 H   0  0
    3.4941  -15.3494   -0.8390 H   0  0
    3.5501  -11.7178   -1.2043 H   0  0
    3.1244  -11.3974    0.4944 H   0  0
    5.2820  -12.3114    1.2503 H   0  0
    5.7006  -12.7804   -0.4153 H   0  0
    5.6166  -10.3725   -1.0929 H   0  0
    5.2584   -9.9255    0.5927 H   0  0
    7.6865   -9.6718    0.1012 H   0  0
    7.7714  -11.3869   -0.3657 H   0  0
    7.4133  -10.9400    1.3194 H   0  0
 13  9  1  0
  3  6  2  0
  6  7  1  0
 14 15  2  0
  1  2  2  0
 15 16  1  0
  7  8  2  0
 16 17  2  0
  8 10  1  0
 17 18  1  0
  9  5  1  0
 18 19  2  0
 19 14  1  0
 12 14  1  0
  9 10  2  0
 17 20  1  0
  5  4  2  0
 20 21  1  0
  4  1  1  0
 21 22  1  0
 22 23  1  0
  2  3  1  0
 23 24  1  0
  5  6  1  0
 23 25  1  0
 10 11  1  0
 25 26  1  0
 11 12  1  0
 26 27  1  0
 12 13  2  0
 27 28  1  0
  1 29  1  0
  2 30  1  0
  3 31  1  0
  4 32  1  0
  7 33  1  0
  8 34  1  0
 15 35  1  0
 16 36  1  0
 18 37  1  0
 19 38  1  0
 21 39  1  0
 21 40  1  0
 22 41  1  0
 22 42  1  0
 24 43  1  0
 24 44  1  0
 24 45  1  0
 25 46  1  0
 25 47  1  0
 26 48  1  0
 26 49  1  0
 27 50  1  0
 27 51  1  0
 28 52  1  0
 28 53  1  0
 28 54  1  0
M  END
> <Name>
Molecule

> <Clean Energy>
22.72

> <From>
www.bindingDB.org

> <BindingDB Reactant_set_id>
50413328

> <Ligand InChI>
InChI=1S/C24H26N2O2/c1-3-4-15-26(2)16-17-27-20-12-9-19(10-13-20)24-25-23-21-8-6-5-7-18(21)11-14-22(23)28-24/h5-14H,3-4,15-17H2,1-2H3

> <Ligand InChI Key>
JAYNPQWBDQJHAA-UHFFFAOYSA-N

> <BindingDB MonomerID>
50266162

> <BindingDB Ligand Name>
Butyl-methyl-[2-(4-naphtho[1,2-d]oxazol-2-yl-phenoxy)-ethyl]-amine::CHEMBL512442

> <Target Name>
Tyrosine-protein phosphatase non-receptor type 1

> <Target Source Organism According to Curator or DataSource>
Homo sapiens

> <IC50 (nM)>
2500

> <Curation/DataSource>
ChEMBL

> <Article DOI>
10.1016/j.ejmech.2008.03.009

> <BindingDB Entry DOI>
10.7270/Q2FN1602

> <PMID>
18436346

> <Authors>
Kumar, A; Ahmad, P; Maurya, RA; Singh, AB; Srivastava, AK

> <Institution>
Central Drug Research Institute

> <Link to Ligand in BindingDB>
http://www.bindingdb.org/bind/chemsearch/marvin/MolStructure.jsp?monomerid=50266162

> <Link to Ligand-Target Pair in BindingDB>
http://www.bindingdb.org/jsp/dbsearch/PrimarySearch_ki.jsp?energyterm=kJ/mole&tag=pol&polymerid=2622&target=Tyrosine-protein+phosphatase+non-receptor+type+1&column=ki&startPg=0&Increment=50&submit=Sea
rch
http://www.bindingdb.org/jsp/dbsearch/PrimarySearch_ki.jsp?energyterm=kJ/mole&tag=r21&monomerid=50266162&enzyme=Tyrosine-protein+phosphatase+non-receptor+type+1&column=ki&startPg=0&Increment=50&submit
=Search

> <PubChem CID of Ligand>
25199188

> <PubChem SID of Ligand>
104113654

> <ChEMBL ID of Ligand>
CHEMBL512442

> <ZINC ID of Ligand>
ZINC40880965

> <Number of Protein Chains in Target (bigger than 1 implies a multichain complex)>
1

> <BindingDB Target Chain Sequence>
MEMEKEFEQIDKSGSWAAIYQDIRHEASDFPCRVAKLPKNKNRNRYRDVSPFDHSRIKLHQEDNDYINASLIKMEEAQRSYILTQGPLPNTCGHFWEMVWEQKSRGVVMLNRVMEKGSLKCAQYWPQKEEKEMIFEDTNLKLTLISEDIKSYYTVRQLELENLTTQETREILHFHYTTWPDFGVPESPASFLNFLFKVRE
SGSLSPEHGPVVVHCSAGIGRSGTFCLADTCLLLMDKRKDPSSVDIKKVLLEMRKFRMGLIQTADQLRFSYLAVIEGAKFIMGDSSVQDQWKELSHEDLEPPPEHIPPPPRPPKRILEPHNGKCREFFPNHQWVKEETQEDKDCPIKEEKGSPLNAAPYGIESMSQDTEVRSRVVGGSLRGAQAASPAKGEPSLPEKDED
HALSYWKPFLVNMCVATVLTAGAYLCYRFLFNSNT

> <PDB ID(s) of Target Chain>
1BZJ,1G7G,1GFY,1JF7,1KAK,1KAV,1LQF,1NL9,1NNY,1NO6,1NZ7,1OEM,1OEO,1OES,1OET,1OEU,1OEV,1ONY,1ONZ,1PH0,1PXH,1PYN,1Q1M,1Q6J,1Q6M,1Q6N,1Q6P,1Q6S,1Q6T,1QXK,1SUG,1T48,1T49,1T4J,1WAX,1XBO,2AZR,2B07,2BGD,2BGE,
2CM2,2CM3,2CM7,2CM8,2CMA,2CMB,2CMC,2CNE,2CNF,2CNG,2CNH,2CNI,2F6T,2F6V,2F6W,2F6Y,2F6Z,2F70,2F71,2FJN,2H4G,2H4K,2HB1,2HNP,2HNQ,2QBP,2QBQ,2QBR,2QBS,2VEU,2VEV,2VEW,2VEX,2VEY,2ZMM,2ZN7,3A5J,3CWE,3D9C,3EAX,
3EB1,3EU0,3I7Z,3I80,3SME,4BJO,4I8N,4QBW,4Y14,5K9V,5K9W,5KA0,5KA1,5T19,6B90,6NTP,6W30,7KEY,7KLX,7LFO,7MN9,7MNA,8DU7,8G65,8G67,8G68,8G69,8G6A,8SKL

> <UniProt (SwissProt) Recommended Name of Target Chain>
Tyrosine-protein phosphatase non-receptor type 1

> <UniProt (SwissProt) Entry Name of Target Chain>
PTN1_HUMAN

> <UniProt (SwissProt) Primary ID of Target Chain>
P18031

> <UniProt (SwissProt) Secondary ID(s) of Target Chain>
Q5TGD8 Q9BQV9 Q9NQQ4

$$$$
Molecule
  SciTegic10242319433D

 22 23  0  0  0  0            999 V2000
    1.6650    1.9518   -0.3885 S   0  0
    3.3327    2.0067   -0.3181 N   0  0
    1.5086    0.3189   -0.0143 N   0  0
    3.8275    0.7390    0.0173 C   0  0
    2.7730   -0.3589    0.2284 C   0  0
    1.0271    2.8368    0.6655 O   0  0
    1.1457    2.2639   -1.7791 O   0  0
    0.2744   -0.3346    0.0255 C   0  0
    5.0379    0.5167    0.1327 O   0  0
    0.2160   -1.6362    0.3059 C   0  0
   -0.9570    0.4106   -0.2468 C   0  0
   -1.0784   -2.3206    0.3421 C   0  0
   -2.1339   -0.2116   -0.2148 C   0  0
   -2.1975   -1.6424    0.0935 C   0  0
    3.9307    2.8750   -0.5007 H   0  0
    2.8157   -0.7469    1.2461 H   0  0
    2.9169   -1.1758   -0.4787 H   0  0
    1.1318   -2.1915    0.5084 H   0  0
   -0.9099    1.4753   -0.4758 H   0  0
   -1.1259   -3.3849    0.5725 H   0  0
   -3.0496    0.3435   -0.4181 H   0  0
   -3.1608   -2.1520    0.1195 H   0  0
  2  1  1  0
  3  1  1  0
  4  2  1  0
  5  3  1  0
  6  1  2  0
  7  1  2  0
  8  3  1  0
  9  4  2  0
 10  8  2  0
 11  8  1  0
 12 10  1  0
 13 11  2  0
 14 13  1  0
  5  4  1  0
 14 12  2  0
  2 15  1  0
  5 16  1  0
  5 17  1  0
 10 18  1  0
 11 19  1  0
 12 20  1  0
 13 21  1  0
 14 22  1  0
M  END
> <Name>
Molecule

> <Clean Energy>
9.12762

> <From>
www.bindingDB.org

> <BindingDB Reactant_set_id>
50554761

> <Ligand InChI>
InChI=1S/C8H8N2O3S/c11-8-6-10(14(12,13)9-8)7-4-2-1-3-5-7/h1-5H,6H2,(H,9,11)

> <Ligand InChI Key>
LDCZCUKQWRZSDT-UHFFFAOYSA-N

> <BindingDB MonomerID>
50166434

> <BindingDB Ligand Name>
1,1-Dioxo-5-phenyl-1lambda*6*-[1,2,5]thiadiazolidin-3-one::1,2,5-THIADIAZOLIDIN-3-ONE-1,1-DIOXIDE::CHEMBL190801

> <Target Name>
Tyrosine-protein phosphatase non-receptor type 1

> <Target Source Organism According to Curator or DataSource>
Homo sapiens

> <IC50 (nM)>
2500

> <Curation/DataSource>
ChEMBL

> <Article DOI>
10.1021/jm901090b

> <BindingDB Entry DOI>
10.7270/Q28P60MB

> <PMID>
20000419

> <Authors>
Combs, AP

> <Institution>
Incyte Corporation

> <Link to Ligand in BindingDB>
http://www.bindingdb.org/bind/chemsearch/marvin/MolStructure.jsp?monomerid=50166434

> <Link to Ligand-Target Pair in BindingDB>
http://www.bindingdb.org/jsp/dbsearch/PrimarySearch_ki.jsp?energyterm=kJ/mole&tag=pol&polymerid=2622&target=Tyrosine-protein+phosphatase+non-receptor+type+1&column=ki&startPg=0&Increment=50&submit=Sea
rch
http://www.bindingdb.org/jsp/dbsearch/PrimarySearch_ki.jsp?energyterm=kJ/mole&tag=r21&monomerid=50166434&enzyme=Tyrosine-protein+phosphatase+non-receptor+type+1&column=ki&startPg=0&Increment=50&submit
=Search

> <Ligand HET ID in PDB>
T2D

> <PDB ID(s) for Ligand-Target Complex>
2BGE

> <PubChem CID of Ligand>
4369452

> <PubChem SID of Ligand>
104051892

> <ChEMBL ID of Ligand>
CHEMBL190801

> <DrugBank ID of Ligand>
DB08593

> <ZINC ID of Ligand>
ZINC06475522

> <Number of Protein Chains in Target (bigger than 1 implies a multichain complex)>
1

> <BindingDB Target Chain Sequence>
MEMEKEFEQIDKSGSWAAIYQDIRHEASDFPCRVAKLPKNKNRNRYRDVSPFDHSRIKLHQEDNDYINASLIKMEEAQRSYILTQGPLPNTCGHFWEMVWEQKSRGVVMLNRVMEKGSLKCAQYWPQKEEKEMIFEDTNLKLTLISEDIKSYYTVRQLELENLTTQETREILHFHYTTWPDFGVPESPASFLNFLFKVRE
SGSLSPEHGPVVVHCSAGIGRSGTFCLADTCLLLMDKRKDPSSVDIKKVLLEMRKFRMGLIQTADQLRFSYLAVIEGAKFIMGDSSVQDQWKELSHEDLEPPPEHIPPPPRPPKRILEPHNGKCREFFPNHQWVKEETQEDKDCPIKEEKGSPLNAAPYGIESMSQDTEVRSRVVGGSLRGAQAASPAKGEPSLPEKDED
HALSYWKPFLVNMCVATVLTAGAYLCYRFLFNSNT

> <PDB ID(s) of Target Chain>
1BZJ,1G7G,1GFY,1JF7,1KAK,1KAV,1LQF,1NL9,1NNY,1NO6,1NZ7,1OEM,1OEO,1OES,1OET,1OEU,1OEV,1ONY,1ONZ,1PH0,1PXH,1PYN,1Q1M,1Q6J,1Q6M,1Q6N,1Q6P,1Q6S,1Q6T,1QXK,1SUG,1T48,1T49,1T4J,1WAX,1XBO,2AZR,2B07,2BGD,2BGE,
2CM2,2CM3,2CM7,2CM8,2CMA,2CMB,2CMC,2CNE,2CNF,2CNG,2CNH,2CNI,2F6T,2F6V,2F6W,2F6Y,2F6Z,2F70,2F71,2FJN,2H4G,2H4K,2HB1,2HNP,2HNQ,2QBP,2QBQ,2QBR,2QBS,2VEU,2VEV,2VEW,2VEX,2VEY,2ZMM,2ZN7,3A5J,3CWE,3D9C,3EAX,
3EB1,3EU0,3I7Z,3I80,3SME,4BJO,4I8N,4QBW,4Y14,5K9V,5K9W,5KA0,5KA1,5T19,6B90,6NTP,6W30,7KEY,7KLX,7LFO,7MN9,7MNA,8DU7,8G65,8G67,8G68,8G69,8G6A,8SKL

> <UniProt (SwissProt) Recommended Name of Target Chain>
Tyrosine-protein phosphatase non-receptor type 1

> <UniProt (SwissProt) Entry Name of Target Chain>
PTN1_HUMAN

> <UniProt (SwissProt) Primary ID of Target Chain>
P18031

> <UniProt (SwissProt) Secondary ID(s) of Target Chain>
Q5TGD8 Q9BQV9 Q9NQQ4

$$$$
Molecule
  SciTegic10242319433D

 50 52  0  0  0  0            999 V2000
   11.2354  -17.4431    0.0037 C   0  0
   11.0770  -18.8717    0.2460 C   0  0
   12.1569  -19.6385    0.3828 C   0  0
   13.5001  -19.0458    0.2781 C   0  0
   13.6572  -17.7364    0.0498 C   0  0
   12.4506  -16.9075   -0.0853 C   0  0
   14.9374  -17.0414   -0.0879 O   0  0
   16.2523  -17.6768   -0.0368 C   0  0
   16.4761  -18.9834    0.1212 C   0  0
   17.8431  -19.5180    0.1525 C   0  0
   18.9017  -18.7177    0.0206 C   0  0
   18.6563  -17.2767   -0.1574 C   0  0
   17.4153  -16.7927   -0.1841 C   0  0
    9.7942  -19.4359    0.3188 N   0  0
    8.4192  -18.4958   -0.0770 S   0  0
    6.9482  -19.5478   -0.1341 C   0  0
    8.2220  -17.4085    0.9623 O   0  0
    8.6216  -17.8617   -1.4403 O   0  0
    6.7428  -20.1247    1.1014 F   0  0
    7.1268  -20.5358   -1.0806 F   0  0
    5.8511  -18.7811   -0.4725 F   0  0
   20.2106  -19.3516    0.0817 O   0  0
   21.4832  -18.6484   -0.0240 C   0  0
   22.5826  -19.3951    0.0931 C   0  0
   23.9169  -18.7957    0.0266 C   0  0
   24.0571  -17.4863   -0.1583 C   0  0
   22.8680  -16.6458   -0.2992 C   0  0
   21.6520  -17.1898   -0.2339 C   0  0
   25.3383  -16.9117   -0.2041 N   0  0
   26.7276  -17.8636    0.1090 S   0  0
   28.2103  -16.8268    0.0535 C   0  0
   26.6107  -18.4859    1.4878 O   0  0
   26.8442  -18.9603   -0.9325 O   0  0
   28.3316  -16.2612   -1.1985 F   0  0
   28.1115  -15.8298    1.0021 F   0  0
   29.3213  -17.6029    0.3172 F   0  0
   10.3544  -16.8105   -0.1051 H   0  0
   12.0462  -20.7061    0.5726 H   0  0
   14.3786  -19.6817    0.3879 H   0  0
   12.5528  -15.8366   -0.2612 H   0  0
   15.6311  -19.6636    0.2286 H   0  0
   17.9955  -20.5890    0.2861 H   0  0
   19.5012  -16.5970   -0.2688 H   0  0
   17.2607  -15.7220   -0.3175 H   0  0
    9.6753  -20.4551    0.6221 H   0  0
   22.4858  -20.4707    0.2408 H   0  0
   24.8001  -19.4263    0.1293 H   0  0
   22.9761  -15.5729   -0.4579 H   0  0
   20.7719  -16.5550   -0.3361 H   0  0
   25.4469  -15.8728   -0.4360 H   0  0
 15 18  2  0
  8  9  2  0
 16 19  1  0
  4  5  2  0
 16 20  1  0
  9 10  1  0
 16 21  1  0
  2  3  2  0
 11 22  1  0
 10 11  2  0
 22 23  1  0
  5  6  1  0
 23 24  2  0
 11 12  1  0
 24 25  1  0
  6  1  2  0
 25 26  2  0
 12 13  2  0
 26 27  1  0
 13  8  1  0
 27 28  2  0
 28 23  1  0
  1  2  1  0
 26 29  1  0
  2 14  1  0
 29 30  1  0
  5  7  1  0
 30 31  1  0
 14 15  1  0
 30 32  2  0
  3  4  1  0
 30 33  2  0
 15 16  1  0
 31 34  1  0
  7  8  1  0
 31 35  1  0
 15 17  2  0
 31 36  1  0
  1 37  1  0
  3 38  1  0
  4 39  1  0
  6 40  1  0
  9 41  1  0
 10 42  1  0
 12 43  1  0
 13 44  1  0
 14 45  1  0
 24 46  1  0
 25 47  1  0
 27 48  1  0
 28 49  1  0
 29 50  1  0
M  END
> <Name>
Molecule

> <Clean Energy>
17.5286

> <From>
www.bindingDB.org

> <BindingDB Reactant_set_id>
50554746

> <Ligand InChI>
InChI=1S/C20H14F6N2O6S2/c21-19(22,23)35(29,30)27-13-1-5-15(6-2-13)33-17-9-11-18(12-10-17)34-16-7-3-14(4-8-16)28-36(31,32)20(24,25)26/h1-12,27-28H

> <Ligand InChI Key>
ONWJVOBZCBGVBQ-UHFFFAOYSA-N

> <BindingDB MonomerID>
50308838

> <BindingDB Ligand Name>
CHEMBL605283::N,N'-(4,4'-(1,4-phenylenebis(oxy))bis(4,1-phenylene))bis(1,1,1-trifluoromethanesulfonamide)

> <Target Name>
Tyrosine-protein phosphatase non-receptor type 1

> <Target Source Organism According to Curator or DataSource>
Homo sapiens

> <IC50 (nM)>
2500

> <Curation/DataSource>
ChEMBL

> <Article DOI>
10.1021/jm901090b

> <BindingDB Entry DOI>
10.7270/Q28P60MB

> <PMID>
20000419

> <Authors>
Combs, AP

> <Institution>
Incyte Corporation

> <Link to Ligand in BindingDB>
http://www.bindingdb.org/bind/chemsearch/marvin/MolStructure.jsp?monomerid=50308838

> <Link to Ligand-Target Pair in BindingDB>
http://www.bindingdb.org/jsp/dbsearch/PrimarySearch_ki.jsp?energyterm=kJ/mole&tag=pol&polymerid=2622&target=Tyrosine-protein+phosphatase+non-receptor+type+1&column=ki&startPg=0&Increment=50&submit=Sea
rch
http://www.bindingdb.org/jsp/dbsearch/PrimarySearch_ki.jsp?energyterm=kJ/mole&tag=r21&monomerid=50308838&enzyme=Tyrosine-protein+phosphatase+non-receptor+type+1&column=ki&startPg=0&Increment=50&submit
=Search

> <PubChem CID of Ligand>
18185289

> <PubChem SID of Ligand>
104163199

> <ChEMBL ID of Ligand>
CHEMBL605283

> <ZINC ID of Ligand>
ZINC49767544

> <Number of Protein Chains in Target (bigger than 1 implies a multichain complex)>
1

> <BindingDB Target Chain Sequence>
MEMEKEFEQIDKSGSWAAIYQDIRHEASDFPCRVAKLPKNKNRNRYRDVSPFDHSRIKLHQEDNDYINASLIKMEEAQRSYILTQGPLPNTCGHFWEMVWEQKSRGVVMLNRVMEKGSLKCAQYWPQKEEKEMIFEDTNLKLTLISEDIKSYYTVRQLELENLTTQETREILHFHYTTWPDFGVPESPASFLNFLFKVRE
SGSLSPEHGPVVVHCSAGIGRSGTFCLADTCLLLMDKRKDPSSVDIKKVLLEMRKFRMGLIQTADQLRFSYLAVIEGAKFIMGDSSVQDQWKELSHEDLEPPPEHIPPPPRPPKRILEPHNGKCREFFPNHQWVKEETQEDKDCPIKEEKGSPLNAAPYGIESMSQDTEVRSRVVGGSLRGAQAASPAKGEPSLPEKDED
HALSYWKPFLVNMCVATVLTAGAYLCYRFLFNSNT

> <PDB ID(s) of Target Chain>
1BZJ,1G7G,1GFY,1JF7,1KAK,1KAV,1LQF,1NL9,1NNY,1NO6,1NZ7,1OEM,1OEO,1OES,1OET,1OEU,1OEV,1ONY,1ONZ,1PH0,1PXH,1PYN,1Q1M,1Q6J,1Q6M,1Q6N,1Q6P,1Q6S,1Q6T,1QXK,1SUG,1T48,1T49,1T4J,1WAX,1XBO,2AZR,2B07,2BGD,2BGE,
2CM2,2CM3,2CM7,2CM8,2CMA,2CMB,2CMC,2CNE,2CNF,2CNG,2CNH,2CNI,2F6T,2F6V,2F6W,2F6Y,2F6Z,2F70,2F71,2FJN,2H4G,2H4K,2HB1,2HNP,2HNQ,2QBP,2QBQ,2QBR,2QBS,2VEU,2VEV,2VEW,2VEX,2VEY,2ZMM,2ZN7,3A5J,3CWE,3D9C,3EAX,
3EB1,3EU0,3I7Z,3I80,3SME,4BJO,4I8N,4QBW,4Y14,5K9V,5K9W,5KA0,5KA1,5T19,6B90,6NTP,6W30,7KEY,7KLX,7LFO,7MN9,7MNA,8DU7,8G65,8G67,8G68,8G69,8G6A,8SKL

> <UniProt (SwissProt) Recommended Name of Target Chain>
Tyrosine-protein phosphatase non-receptor type 1

> <UniProt (SwissProt) Entry Name of Target Chain>
PTN1_HUMAN

> <UniProt (SwissProt) Primary ID of Target Chain>
P18031

> <UniProt (SwissProt) Secondary ID(s) of Target Chain>
Q5TGD8 Q9BQV9 Q9NQQ4

$$$$
Molecule
  SciTegic10242319433D

 52 55  0  0  0  0            999 V2000
    3.3965  -15.6151    0.0465 C   0  0
    2.0670  -15.5138    0.0808 C   0  0
    1.2365  -16.6804   -0.2256 C   0  0
    1.8156  -17.8357   -0.5464 C   0  0
    3.2753  -17.9468   -0.5972 C   0  0
    4.0303  -16.8892   -0.3092 C   0  0
   -1.1160  -17.7107   -0.2675 C   0  0
   -0.2330  -16.5911   -0.1516 C   0  0
   -0.9017  -15.5289    0.0653 N   0  0
   -2.1979  -15.8428    0.0903 O   0  0
   -2.3232  -17.1939   -0.0896 C   0  0
   -6.0523  -17.7894    0.0818 C   0  0
   -6.1233  -19.2540    0.0216 C   0  0
   -5.0009  -19.9625   -0.0859 C   0  0
   -3.6924  -19.2875   -0.1169 C   0  0
   -3.6288  -17.9455   -0.0776 C   0  0
   -4.8713  -17.1730    0.0509 C   0  0
   -7.3604  -19.9202    0.0576 O   0  0
   -8.4485  -18.9903    0.1599 C   0  0
   -2.5244  -20.0448   -0.2322 O   0  0
   -2.7286  -21.4687   -0.2420 C   0  0
   -1.4115  -22.1814   -0.7159 C   0  0
   -0.2351  -22.1183    0.2254 N   0  0
    0.9282  -22.6713   -0.5012 C   0  0
    2.2023  -22.5816    0.3715 C   0  0
    2.4531  -21.2139    0.7327 O   0  0
    1.3532  -20.7138    1.5001 C   0  0
    0.0896  -20.7459    0.6277 C   0  0
    4.0139  -14.7486    0.2834 H   0  0
    1.5990  -14.5633    0.3368 H   0  0
    1.1987  -18.7053   -0.7728 H   0  0
    3.7420  -18.8932   -0.8702 H   0  0
    5.1169  -16.9697   -0.3376 H   0  0
   -0.8552  -18.7516   -0.4586 H   0  0
   -6.9689  -17.2037    0.1520 H   0  0
   -5.0510  -21.0494   -0.1513 H   0  0
   -4.8270  -16.0863    0.1217 H   0  0
   -9.3919  -19.5355    0.1857 H   0  0
   -8.4387  -18.3226   -0.7017 H   0  0
   -8.3425  -18.4053    1.0735 H   0  0
   -2.9834  -21.8063    0.7626 H   0  0
   -3.5412  -21.7147   -0.9256 H   0  0
   -1.6459  -23.2328   -0.8826 H   0  0
   -1.1074  -21.7228   -1.6568 H   0  0
    0.7345  -23.7154   -0.7472 H   0  0
    1.0811  -22.1036   -1.4190 H   0  0
    2.0633  -23.1743    1.2757 H   0  0
    3.0527  -22.9686   -0.1900 H   0  0
    1.2065  -21.3385    2.3811 H   0  0
    1.5585  -19.6893    1.8106 H   0  0
    0.2571  -20.1429   -0.2648 H   0  0
   -0.7453  -20.3334    1.1941 H   0  0
  1  2  2  0
 14 15  1  0
  3  4  2  0
 15 16  2  0
  8  9  2  0
 16 17  1  0
 17 12  2  0
 13 18  1  0
 16 11  1  0
  4  5  1  0
 18 19  1  0
  8  3  1  0
  2  3  1  0
 15 20  1  0
  7  8  1  0
 20 21  1  0
  9 10  1  0
 21 22  1  0
 11  7  2  0
 22 23  1  0
 23 24  1  0
  5  6  2  0
  6  1  1  0
 12 13  1  0
 10 11  1  0
 13 14  2  0
 23 28  1  0
 24 25  1  0
 25 26  1  0
 26 27  1  0
 27 28  1  0
  1 29  1  0
  2 30  1  0
  4 31  1  0
  5 32  1  0
  6 33  1  0
  7 34  1  0
 12 35  1  0
 14 36  1  0
 17 37  1  0
 19 38  1  0
 19 39  1  0
 19 40  1  0
 21 41  1  0
 21 42  1  0
 22 43  1  0
 22 44  1  0
 24 45  1  0
 24 46  1  0
 25 47  1  0
 25 48  1  0
 27 49  1  0
 27 50  1  0
 28 51  1  0
 28 52  1  0
M  END
> <Name>
Molecule

> <Clean Energy>
21.1123

> <From>
www.bindingDB.org

> <BindingDB Reactant_set_id>
50644733

> <Ligand InChI>
InChI=1S/C22H24N2O4/c1-25-18-7-8-19(21(15-18)27-14-11-24-9-12-26-13-10-24)22-16-20(23-28-22)17-5-3-2-4-6-17/h2-8,15-16H,9-14H2,1H3

> <Ligand InChI Key>
VQVFYTGPIKXWMZ-UHFFFAOYSA-N

> <BindingDB MonomerID>
50346151

> <BindingDB Ligand Name>
4-(2-(5-methoxy-2-(3-phenylisoxazol-5-yl)phenoxy)ethyl)morpholine::CHEMBL1783775

> <Target Name>
Tyrosine-protein phosphatase non-receptor type 1

> <Target Source Organism According to Curator or DataSource>
Homo sapiens

> <IC50 (nM)>
2500

> <Curation/DataSource>
ChEMBL

> <Article DOI>
10.1016/j.bmc.2009.05.033

> <BindingDB Entry DOI>
10.7270/Q2J966QV

> <PMID>
19500993

> <Authors>
Kumar, A; Maurya, RA; Sharma, S; Ahmad, P; Singh, AB; Tamrakar, AK; Srivastava, AK

> <Institution>
Central Drug Research Institute

> <Link to Ligand in BindingDB>
http://www.bindingdb.org/bind/chemsearch/marvin/MolStructure.jsp?monomerid=50346151

> <Link to Ligand-Target Pair in BindingDB>
http://www.bindingdb.org/jsp/dbsearch/PrimarySearch_ki.jsp?energyterm=kJ/mole&tag=pol&polymerid=2622&target=Tyrosine-protein+phosphatase+non-receptor+type+1&column=ki&startPg=0&Increment=50&submit=Sea
rch
http://www.bindingdb.org/jsp/dbsearch/PrimarySearch_ki.jsp?energyterm=kJ/mole&tag=r21&monomerid=50346151&enzyme=Tyrosine-protein+phosphatase+non-receptor+type+1&column=ki&startPg=0&Increment=50&submit
=Search

> <PubChem CID of Ligand>
54580437

> <PubChem SID of Ligand>
131349082

> <ChEMBL ID of Ligand>
CHEMBL1783775

> <ZINC ID of Ligand>
ZINC71295159

> <Number of Protein Chains in Target (bigger than 1 implies a multichain complex)>
1

> <BindingDB Target Chain Sequence>
MEMEKEFEQIDKSGSWAAIYQDIRHEASDFPCRVAKLPKNKNRNRYRDVSPFDHSRIKLHQEDNDYINASLIKMEEAQRSYILTQGPLPNTCGHFWEMVWEQKSRGVVMLNRVMEKGSLKCAQYWPQKEEKEMIFEDTNLKLTLISEDIKSYYTVRQLELENLTTQETREILHFHYTTWPDFGVPESPASFLNFLFKVRE
SGSLSPEHGPVVVHCSAGIGRSGTFCLADTCLLLMDKRKDPSSVDIKKVLLEMRKFRMGLIQTADQLRFSYLAVIEGAKFIMGDSSVQDQWKELSHEDLEPPPEHIPPPPRPPKRILEPHNGKCREFFPNHQWVKEETQEDKDCPIKEEKGSPLNAAPYGIESMSQDTEVRSRVVGGSLRGAQAASPAKGEPSLPEKDED
HALSYWKPFLVNMCVATVLTAGAYLCYRFLFNSNT

> <PDB ID(s) of Target Chain>
1BZJ,1G7G,1GFY,1JF7,1KAK,1KAV,1LQF,1NL9,1NNY,1NO6,1NZ7,1OEM,1OEO,1OES,1OET,1OEU,1OEV,1ONY,1ONZ,1PH0,1PXH,1PYN,1Q1M,1Q6J,1Q6M,1Q6N,1Q6P,1Q6S,1Q6T,1QXK,1SUG,1T48,1T49,1T4J,1WAX,1XBO,2AZR,2B07,2BGD,2BGE,
2CM2,2CM3,2CM7,2CM8,2CMA,2CMB,2CMC,2CNE,2CNF,2CNG,2CNH,2CNI,2F6T,2F6V,2F6W,2F6Y,2F6Z,2F70,2F71,2FJN,2H4G,2H4K,2HB1,2HNP,2HNQ,2QBP,2QBQ,2QBR,2QBS,2VEU,2VEV,2VEW,2VEX,2VEY,2ZMM,2ZN7,3A5J,3CWE,3D9C,3EAX,
3EB1,3EU0,3I7Z,3I80,3SME,4BJO,4I8N,4QBW,4Y14,5K9V,5K9W,5KA0,5KA1,5T19,6B90,6NTP,6W30,7KEY,7KLX,7LFO,7MN9,7MNA,8DU7,8G65,8G67,8G68,8G69,8G6A,8SKL

> <UniProt (SwissProt) Recommended Name of Target Chain>
Tyrosine-protein phosphatase non-receptor type 1

> <UniProt (SwissProt) Entry Name of Target Chain>
PTN1_HUMAN

> <UniProt (SwissProt) Primary ID of Target Chain>
P18031

> <UniProt (SwissProt) Secondary ID(s) of Target Chain>
Q5TGD8 Q9BQV9 Q9NQQ4

$$$$
Molecule
  SciTegic10242319433D

 57 59  0  0  0  0            999 V2000
    1.4893  -26.0821    0.0002 N   0  0
    2.7404  -26.8085   -0.0004 C   0  0
    2.8692  -28.4666   -0.0027 S   0  0
    4.5311  -28.6022   -0.0023 C   0  0
    4.9996  -27.3450   -0.0002 C   0  0
    3.9255  -26.2945    0.0006 N   0  0
    6.4758  -27.0748   -0.0003 C   0  0
    7.4080  -28.2187   -0.0007 C   0  0
    8.7266  -28.0219   -0.0005 C   0  0
    9.2630  -26.6627    0.0018 C   0  0
    8.4310  -25.6223    0.0025 C   0  0
    6.9710  -25.8332    0.0026 C   0  0
   -1.0637  -25.8190    0.0020 C   0  0
  -14.1493  -24.5883    0.1900 O   0  0
  -12.7756  -23.6109   -0.0812 S   0  0
  -11.2485  -24.5638   -0.0443 C   0  0
  -10.0733  -23.9199   -0.0370 C   0  0
   -8.7485  -24.6250   -0.0198 C   0  0
   -8.6693  -25.9559   -0.0182 C   0  0
   -7.3377  -26.6207   -0.0091 C   0  0
   -6.2059  -25.9041   -0.0037 C   0  0
   -6.3003  -24.4335   -0.0046 C   0  0
   -7.4983  -23.8332   -0.0120 C   0  0
  -12.9124  -22.9480   -1.4388 O   0  0
  -12.7175  -22.5247    0.9759 O   0  0
  -15.3258  -23.7582    0.1310 C   0  0
   -4.9309  -26.5937    0.0012 O   0  0
  -16.5928  -24.6061    0.3641 C   0  0
   -3.7328  -25.7311    0.0035 C   0  0
   -2.4235  -26.6417    0.0006 C   0  0
    0.1909  -26.7992   -0.0015 C   0  0
    6.1549  -24.7752    0.0032 F   0  0
    1.5007  -25.0122    0.0019 H   0  0
    5.1160  -29.5220   -0.0036 H   0  0
    7.0144  -29.2352   -0.0011 H   0  0
    9.4048  -28.8752   -0.0021 H   0  0
   10.3408  -26.5006    0.0029 H   0  0
    8.8317  -24.6086    0.0031 H   0  0
   -1.0268  -25.1887   -0.8865 H   0  0
   -1.0257  -25.1935    0.8938 H   0  0
  -11.2795  -25.6532   -0.0281 H   0  0
  -10.0798  -22.8299   -0.0440 H   0  0
   -9.5788  -26.5566   -0.0236 H   0  0
   -7.2824  -27.7093   -0.0068 H   0  0
   -5.3916  -23.8315    0.0007 H   0  0
   -7.5528  -22.7446   -0.0123 H   0  0
  -15.2617  -22.9890    0.9006 H   0  0
  -15.3843  -23.2872   -0.8503 H   0  0
  -17.4732  -23.9654    0.3166 H   0  0
  -16.5396  -25.0775    1.3455 H   0  0
  -16.6622  -25.3756   -0.4048 H   0  0
   -3.7381  -25.0995   -0.8848 H   0  0
   -3.7378  -25.1046    0.8954 H   0  0
   -2.4431  -27.2727    0.8892 H   0  0
   -2.4440  -27.2683   -0.8911 H   0  0
    0.1414  -27.4290    0.8868 H   0  0
    0.1407  -27.4236   -0.8935 H   0  0
 16 17  2  0
  8  9  2  0
 17 18  1  0
  3  4  1  0
 18 19  2  0
  9 10  1  0
 19 20  1  0
  4  5  2  0
 20 21  2  0
 10 11  2  0
 21 22  1  0
  5  6  1  0
 22 23  2  0
 23 18  1  0
 11 12  1  0
 15 24  2  0
 12  7  2  0
 15 25  2  0
  5  7  1  0
 14 26  1  0
  6  2  2  0
 21 27  1  0
  1  2  1  0
 26 28  1  0
  2  3  1  0
 27 29  1  0
 14 15  1  0
 29 30  1  0
 30 13  1  0
  7  8  1  0
 13 31  1  0
 31  1  1  0
 15 16  1  0
 12 32  1  0
  1 33  1  0
  4 34  1  0
  8 35  1  0
  9 36  1  0
 10 37  1  0
 11 38  1  0
 13 39  1  0
 13 40  1  0
 16 41  1  0
 17 42  1  0
 19 43  1  0
 20 44  1  0
 22 45  1  0
 23 46  1  0
 26 47  1  0
 26 48  1  0
 28 49  1  0
 28 50  1  0
 28 51  1  0
 29 52  1  0
 29 53  1  0
 30 54  1  0
 30 55  1  0
 31 56  1  0
 31 57  1  0
M  END
> <Name>
Molecule

> <Clean Energy>
25.5517

> <From>
www.bindingDB.org

> <BindingDB Reactant_set_id>
50952926

> <Ligand InChI>
InChI=1S/C23H25FN2O4S2/c1-2-30-32(27,28)16-13-18-9-11-19(12-10-18)29-15-6-5-14-25-23-26-22(17-31-23)20-7-3-4-8-21(20)24/h3-4,7-13,16-17H,2,5-6,14-15H2,1H3,(H,25,26)/b16-13+

> <Ligand InChI Key>
WTTHUIAUQWDYOC-DTQAZKPQSA-N

> <BindingDB MonomerID>
50391116

> <BindingDB Ligand Name>
CHEMBL2087697

> <Target Name>
Tyrosine-protein phosphatase non-receptor type 1

> <Target Source Organism According to Curator or DataSource>
Homo sapiens

> <IC50 (nM)>
2500

> <Curation/DataSource>
ChEMBL

> <Article DOI>
10.1016/j.ejmech.2012.09.015

> <BindingDB Entry DOI>
10.7270/Q2HX1DRS

> <PMID>
23043764

> <Authors>
Liu, J; Jiang, F; Jin, Y; Zhang, Y; Liu, J; Liu, W; Fu, L

> <Institution>
Shanghai Jiao Tong University

> <Link to Ligand in BindingDB>
http://www.bindingdb.org/bind/chemsearch/marvin/MolStructure.jsp?monomerid=50391116

> <Link to Ligand-Target Pair in BindingDB>
http://www.bindingdb.org/jsp/dbsearch/PrimarySearch_ki.jsp?energyterm=kJ/mole&tag=pol&polymerid=2622&target=Tyrosine-protein+phosphatase+non-receptor+type+1&column=ki&startPg=0&Increment=50&submit=Sea
rch
http://www.bindingdb.org/jsp/dbsearch/PrimarySearch_ki.jsp?energyterm=kJ/mole&tag=r21&monomerid=50391116&enzyme=Tyrosine-protein+phosphatase+non-receptor+type+1&column=ki&startPg=0&Increment=50&submit
=Search

> <PubChem CID of Ligand>
70689038

> <PubChem SID of Ligand>
160870199

> <ChEMBL ID of Ligand>
CHEMBL2087697

> <ZINC ID of Ligand>
ZINC84730660

> <Number of Protein Chains in Target (bigger than 1 implies a multichain complex)>
1

> <BindingDB Target Chain Sequence>
MEMEKEFEQIDKSGSWAAIYQDIRHEASDFPCRVAKLPKNKNRNRYRDVSPFDHSRIKLHQEDNDYINASLIKMEEAQRSYILTQGPLPNTCGHFWEMVWEQKSRGVVMLNRVMEKGSLKCAQYWPQKEEKEMIFEDTNLKLTLISEDIKSYYTVRQLELENLTTQETREILHFHYTTWPDFGVPESPASFLNFLFKVRE
SGSLSPEHGPVVVHCSAGIGRSGTFCLADTCLLLMDKRKDPSSVDIKKVLLEMRKFRMGLIQTADQLRFSYLAVIEGAKFIMGDSSVQDQWKELSHEDLEPPPEHIPPPPRPPKRILEPHNGKCREFFPNHQWVKEETQEDKDCPIKEEKGSPLNAAPYGIESMSQDTEVRSRVVGGSLRGAQAASPAKGEPSLPEKDED
HALSYWKPFLVNMCVATVLTAGAYLCYRFLFNSNT

> <PDB ID(s) of Target Chain>
1BZJ,1G7G,1GFY,1JF7,1KAK,1KAV,1LQF,1NL9,1NNY,1NO6,1NZ7,1OEM,1OEO,1OES,1OET,1OEU,1OEV,1ONY,1ONZ,1PH0,1PXH,1PYN,1Q1M,1Q6J,1Q6M,1Q6N,1Q6P,1Q6S,1Q6T,1QXK,1SUG,1T48,1T49,1T4J,1WAX,1XBO,2AZR,2B07,2BGD,2BGE,
2CM2,2CM3,2CM7,2CM8,2CMA,2CMB,2CMC,2CNE,2CNF,2CNG,2CNH,2CNI,2F6T,2F6V,2F6W,2F6Y,2F6Z,2F70,2F71,2FJN,2H4G,2H4K,2HB1,2HNP,2HNQ,2QBP,2QBQ,2QBR,2QBS,2VEU,2VEV,2VEW,2VEX,2VEY,2ZMM,2ZN7,3A5J,3CWE,3D9C,3EAX,
3EB1,3EU0,3I7Z,3I80,3SME,4BJO,4I8N,4QBW,4Y14,5K9V,5K9W,5KA0,5KA1,5T19,6B90,6NTP,6W30,7KEY,7KLX,7LFO,7MN9,7MNA,8DU7,8G65,8G67,8G68,8G69,8G6A,8SKL

> <UniProt (SwissProt) Recommended Name of Target Chain>
Tyrosine-protein phosphatase non-receptor type 1

> <UniProt (SwissProt) Entry Name of Target Chain>
PTN1_HUMAN

> <UniProt (SwissProt) Primary ID of Target Chain>
P18031

> <UniProt (SwissProt) Secondary ID(s) of Target Chain>
Q5TGD8 Q9BQV9 Q9NQQ4

$$$$
Molecule
  SciTegic10242319433D

100104  0  0  0  0            999 V2000
    2.7572  -22.8355    1.0674 C   0  0
    1.5011  -23.8027    0.4853 P   0  0
    4.1885  -23.4377    0.4101 P   0  0
    4.1109  -23.3734   -0.9677 O   0  0
    1.4682  -23.6965   -0.8926 O   0  0
    1.7620  -25.2810    0.8592 O   0  0
    0.1231  -23.3960    1.0714 O   0  0
    5.4204  -22.6396    0.8932 O   0  0
    4.3680  -24.9225    0.8267 O   0  0
    2.5272  -21.3662    0.6180 C   0  0
    2.4732   -8.3141   -1.1636 C   0  0
    3.8437   -7.5370   -0.3676 P   0  0
    1.2016   -7.4443   -0.4882 P   0  0
    1.2557   -6.1557   -0.9881 O   0  0
    3.7366   -7.7623    0.9938 O   0  0
    3.8112   -6.0006   -0.5823 O   0  0
    5.2529   -8.0448   -0.7841 O   0  0
    1.4237   -7.4265    1.0303 O   0  0
   -0.2065   -7.9910   -0.7341 O   0  0
    2.5135   -9.8166   -0.7516 C   0  0
    1.2725  -10.6218   -0.1803 C   0  0
    1.5055  -11.7864    0.4765 C   0  0
    2.9954  -12.1256    0.5825 C   0  0
    4.0017  -11.5895   -0.0854 C   0  0
    3.7392  -10.3532   -0.7515 C   0  0
    0.2635  -12.9425    1.1761 C   0  0
   -0.6364  -14.3050    0.3568 C   0  0
   -1.6054  -13.9603   -0.4977 C   0  0
   -2.3690  -14.9645   -1.2733 C   0  0
   -2.0793  -16.2629   -1.2499 C   0  0
   -1.0515  -16.8484   -0.3853 C   0  0
   -0.3834  -16.0131    0.5147 C   0  0
   -0.8682  -18.4394   -0.6376 C   0  0
    0.6373  -18.9165   -0.5896 C   0  0
    1.0720  -20.8947    0.3376 C   0  0
    4.2592  -20.0647    0.1094 C   0  0
    4.0788  -18.6669   -0.5587 C   0  0
    1.8334  -17.9944   -1.0330 C   0  0
    5.5815  -17.9219   -0.9151 C   0  0
    6.2522  -16.4574   -0.4537 C   0  0
    7.5071  -16.4521   -0.0130 C   0  0
    8.1355  -15.2069    0.4104 C   0  0
    7.4699  -14.0509    0.3878 C   0  0
    6.0654  -13.9354   -0.0835 C   0  0
    5.5172  -15.1724   -0.5284 C   0  0
    5.5259  -12.2360    0.0075 C   0  0
    3.3728  -13.0023    1.3860 O   0  0
    1.5317  -16.8133   -1.6663 O   0  0
    0.6010  -16.4841    1.6283 O   0  0
    4.3190  -15.5233   -1.0486 O   0  0
    0.9584  -17.9351    2.1572 C   0  0
    2.3131  -18.7977    1.4844 C   0  0
    2.4895  -20.3911   -1.8844 C   0  0
    3.4079  -14.7071   -0.9680 C   0  0
    2.6460  -15.2657    0.2534 C   0  0
    3.3905  -15.6205    1.6266 C   0  0
    2.7954  -22.8902    2.1554 H   0  0
    2.6685  -25.5956    0.4327 H   0  0
   -0.6255  -24.0101    0.6653 H   0  0
    6.2909  -23.0507    0.4738 H   0  0
    3.5471  -25.4831    0.4885 H   0  0
    2.5142   -8.1922   -2.2460 H   0  0
    3.8542   -5.7894   -1.6099 H   0  0
    5.3341   -9.0693   -0.5686 H   0  0
    1.4332   -8.4112    1.3947 H   0  0
   -0.3959   -8.0200   -1.7665 H   0  0
    0.2568  -10.2489   -0.3120 H   0  0
    4.5500   -9.8391   -1.2677 H   0  0
    0.7795  -13.4219    2.0079 H   0  0
   -0.5227  -12.2932    1.5612 H   0  0
   -1.8414  -12.9041   -0.6279 H   0  0
   -3.2026  -14.6261   -1.8887 H   0  0
   -2.6369  -16.9273   -1.9100 H   0  0
   -1.4247  -18.9767    0.1303 H   0  0
   -1.2756  -18.6820   -1.6191 H   0  0
    0.2421  -21.5501    0.6019 H   0  0
    5.2664  -20.4155    0.3345 H   0  0
    6.3148  -18.6547   -0.5783 H   0  0
    5.5893  -17.8733   -2.0040 H   0  0
    8.0692  -17.3849    0.0318 H   0  0
    9.1703  -15.2205    0.7524 H   0  0
    7.9794  -13.1504    0.7306 H   0  0
    6.0726  -11.7414   -0.7953 H   0  0
    5.9018  -11.8902    0.9705 H   0  0
    3.1028  -12.7231    2.3616 H   0  0
    1.8953  -16.0084   -1.0985 H   0  0
    1.1443  -17.8429    3.2273 H   0  0
    0.0775  -18.5556    1.9930 H   0  0
    3.1386  -18.0861    1.5037 H   0  0
    2.5120  -19.6049    2.1893 H   0  0
    3.4672  -20.8543   -2.0171 H   0  0
    2.3396  -19.6334   -2.6536 H   0  0
    1.7133  -21.1518   -1.9682 H   0  0
    3.7833  -13.7005   -0.7834 H   0  0
    2.7875  -14.7053   -1.8642 H   0  0
    1.8835  -14.5273    0.5014 H   0  0
    2.1665  -16.1858   -0.0806 H   0  0
    2.6647  -15.9972    2.3471 H   0  0
    3.8656  -14.7241    2.0250 H   0  0
    4.1485  -16.3821    1.4432 H   0  0
  2  6  1  0
 11 12  1  0
  1  2  1  0
 11 13  1  0
  2  7  1  0
 13 14  2  0
 21 22  2  0
 22 23  1  0
 23 24  2  0
 24 25  1  0
 25 20  2  0
 20 21  1  0
 22 26  1  0
 26 27  1  0
 27 28  2  0
 28 29  1  0
 29 30  2  0
 30 31  1  0
 31 32  2  0
 32 27  1  0
 31 33  1  0
 33 34  1  0
 34 35  1  0
 35 10  2  0
 10 36  1  0
 36 37  2  0
 37 38  1  0
 38 34  2  0
 37 39  1  0
 39 40  1  0
 40 41  2  0
 41 42  1  0
 42 43  2  0
 43 44  1  0
 44 45  2  0
 45 40  1  0
 24 46  1  0
 46 44  1  0
  3  4  2  0
 23 47  1  0
 12 15  2  0
 38 48  1  0
  3  8  1  0
 32 49  1  0
 12 16  1  0
 12 17  1  0
 45 50  1  0
  3  9  1  0
 13 18  1  0
 49 51  1  0
  2  5  2  0
 51 52  1  0
 13 19  1  0
 52 53  1  0
  1 10  1  0
 50 54  1  0
 11 20  1  0
 54 55  1  0
  1  3  1  0
 55 56  1  0
  1 57  1  0
  6 58  1  0
  7 59  1  0
  8 60  1  0
  9 61  1  0
 11 62  1  0
 16 63  1  0
 17 64  1  0
 18 65  1  0
 19 66  1  0
 21 67  1  0
 25 68  1  0
 26 69  1  0
 26 70  1  0
 28 71  1  0
 29 72  1  0
 30 73  1  0
 33 74  1  0
 33 75  1  0
 35 76  1  0
 36 77  1  0
 39 78  1  0
 39 79  1  0
 41 80  1  0
 42 81  1  0
 43 82  1  0
 46 83  1  0
 46 84  1  0
 47 85  1  0
 48 86  1  0
 51 87  1  0
 51 88  1  0
 52 89  1  0
 52 90  1  0
 53 91  1  0
 53 92  1  0
 53 93  1  0
 54 94  1  0
 54 95  1  0
 55 96  1  0
 55 97  1  0
 56 98  1  0
 56 99  1  0
 56100  1  0
M  END
> <Name>
Molecule

> <Clean Energy>
1296.98

> <From>
www.bindingDB.org

> <BindingDB Reactant_set_id>
51078824

> <Ligand InChI>
InChI=1S/C36H44O16P4/c1-3-11-51-33-21-7-5-8-22(33)14-26-18-30(36(55(45,46)47)56(48,49)50)20-28(32(26)38)16-24-10-6-9-23(34(24)52-12-4-2)15-27-19-29(17-25(13-21)31(27)37)35(53(39,40)41)54(42,43)44/h5-1
0,17-20,35-38H,3-4,11-16H2,1-2H3,(H2,39,40,41)(H2,42,43,44)(H2,45,46,47)(H2,48,49,50)

> <Ligand InChI Key>
ZIWTXPWHTXLQTF-UHFFFAOYSA-N

> <BindingDB MonomerID>
50306211

> <BindingDB Ligand Name>
CHEMBL611317::{[17-(diphosphonomethyl)-26,28-dihydroxy-25,27-dipropoxypentacyclo[19.3.1.1^{3,7}.1^{9,13}.1^{15,19}]octacosa-1(25),3,5,7(28),9,11,13(27),15(26),16,18,21,23-dodecaen-5-yl](phosphono)meth
yl}phosphonic acid

> <Target Name>
Tyrosine-protein phosphatase non-receptor type 1

> <Target Source Organism According to Curator or DataSource>
Homo sapiens

> <IC50 (nM)>
2500

> <Curation/DataSource>
ChEMBL

> <Article DOI>
10.1016/j.bmcl.2013.08.040

> <BindingDB Entry DOI>
10.7270/Q29Z96BF

> <PMID>
24012179

> <Authors>
Trush, VV; Cherenok, SO; Tanchuk, VY; Kukhar, VP; Kalchenko, VI; Vovk, AI

> <Institution>
National Academy of Sciences of Ukraine

> <Link to Ligand in BindingDB>
http://www.bindingdb.org/bind/chemsearch/marvin/MolStructure.jsp?monomerid=50306211

> <Link to Ligand-Target Pair in BindingDB>
http://www.bindingdb.org/jsp/dbsearch/PrimarySearch_ki.jsp?energyterm=kJ/mole&tag=pol&polymerid=2622&target=Tyrosine-protein+phosphatase+non-receptor+type+1&column=ki&startPg=0&Increment=50&submit=Sea
rch
http://www.bindingdb.org/jsp/dbsearch/PrimarySearch_ki.jsp?energyterm=kJ/mole&tag=r21&monomerid=50306211&enzyme=Tyrosine-protein+phosphatase+non-receptor+type+1&column=ki&startPg=0&Increment=50&submit
=Search

> <PubChem CID of Ligand>
11343454

> <PubChem SID of Ligand>
104160572

> <ChEMBL ID of Ligand>
CHEMBL611317

> <Number of Protein Chains in Target (bigger than 1 implies a multichain complex)>
1

> <BindingDB Target Chain Sequence>
MEMEKEFEQIDKSGSWAAIYQDIRHEASDFPCRVAKLPKNKNRNRYRDVSPFDHSRIKLHQEDNDYINASLIKMEEAQRSYILTQGPLPNTCGHFWEMVWEQKSRGVVMLNRVMEKGSLKCAQYWPQKEEKEMIFEDTNLKLTLISEDIKSYYTVRQLELENLTTQETREILHFHYTTWPDFGVPESPASFLNFLFKVRE
SGSLSPEHGPVVVHCSAGIGRSGTFCLADTCLLLMDKRKDPSSVDIKKVLLEMRKFRMGLIQTADQLRFSYLAVIEGAKFIMGDSSVQDQWKELSHEDLEPPPEHIPPPPRPPKRILEPHNGKCREFFPNHQWVKEETQEDKDCPIKEEKGSPLNAAPYGIESMSQDTEVRSRVVGGSLRGAQAASPAKGEPSLPEKDED
HALSYWKPFLVNMCVATVLTAGAYLCYRFLFNSNT

> <PDB ID(s) of Target Chain>
1BZJ,1G7G,1GFY,1JF7,1KAK,1KAV,1LQF,1NL9,1NNY,1NO6,1NZ7,1OEM,1OEO,1OES,1OET,1OEU,1OEV,1ONY,1ONZ,1PH0,1PXH,1PYN,1Q1M,1Q6J,1Q6M,1Q6N,1Q6P,1Q6S,1Q6T,1QXK,1SUG,1T48,1T49,1T4J,1WAX,1XBO,2AZR,2B07,2BGD,2BGE,
2CM2,2CM3,2CM7,2CM8,2CMA,2CMB,2CMC,2CNE,2CNF,2CNG,2CNH,2CNI,2F6T,2F6V,2F6W,2F6Y,2F6Z,2F70,2F71,2FJN,2H4G,2H4K,2HB1,2HNP,2HNQ,2QBP,2QBQ,2QBR,2QBS,2VEU,2VEV,2VEW,2VEX,2VEY,2ZMM,2ZN7,3A5J,3CWE,3D9C,3EAX,
3EB1,3EU0,3I7Z,3I80,3SME,4BJO,4I8N,4QBW,4Y14,5K9V,5K9W,5KA0,5KA1,5T19,6B90,6NTP,6W30,7KEY,7KLX,7LFO,7MN9,7MNA,8DU7,8G65,8G67,8G68,8G69,8G6A,8SKL

> <UniProt (SwissProt) Recommended Name of Target Chain>
Tyrosine-protein phosphatase non-receptor type 1

> <UniProt (SwissProt) Entry Name of Target Chain>
PTN1_HUMAN

> <UniProt (SwissProt) Primary ID of Target Chain>
P18031

> <UniProt (SwissProt) Secondary ID(s) of Target Chain>
Q5TGD8 Q9BQV9 Q9NQQ4

$$$$
Molecule
  SciTegic10242319433D

 54 57  0  0  0  0            999 V2000
   -9.0595  -19.5446   -0.2054 C   0  0
   -9.0707  -20.8764   -0.1207 C   0  0
   -7.8106  -21.6178    0.0027 C   0  0
   -7.7845  -18.8145   -0.1756 C   0  0
   -6.6491  -19.4952   -0.0671 C   0  0
   -6.6560  -20.9545    0.0274 C   0  0
   -5.3678  -21.6788    0.1610 C   0  0
   -4.2154  -20.9972    0.2089 C   0  0
   -5.3599  -18.8492   -0.0144 C   0  0
   -4.2541  -19.5352    0.1202 C   0  0
   -3.2211  -18.6890    0.1693 O   0  0
   -3.7813  -17.4283    0.0450 C   0  0
   -5.0590  -17.4878   -0.0732 N   0  0
   -2.9876  -16.1957    0.0615 C   0  0
   -1.6924  -16.2689    0.3563 C   0  0
   -0.8736  -15.0605    0.3960 C   0  0
   -1.4024  -13.8669    0.1133 C   0  0
   -2.8406  -13.7919   -0.2183 C   0  0
   -3.5937  -14.8951   -0.2329 C   0  0
   -0.6332  -12.6420    0.1386 O   0  0
    0.7884  -12.7298    0.5327 C   0  0
    1.7105  -13.4478   -0.5040 C   0  0
    3.1217  -13.4347   -0.0549 N   0  0
    3.8977  -14.3397   -0.9153 C   0  0
    3.6678  -12.0624   -0.1769 C   0  0
    5.1701  -12.0517    0.1976 C   0  0
    5.7612  -10.6494   -0.0486 C   0  0
    7.2681  -10.6630    0.2752 C   0  0
   -9.9978  -18.9974   -0.2969 H   0  0
  -10.0182  -21.4147   -0.1431 H   0  0
   -7.8195  -22.7054    0.0736 H   0  0
   -7.7706  -17.7266   -0.2419 H   0  0
   -5.3591  -22.7671    0.2202 H   0  0
   -3.2653  -21.5213    0.3122 H   0  0
   -1.2394  -17.2371    0.5696 H   0  0
    0.1816  -15.1333    0.6595 H   0  0
   -3.2911  -12.8275   -0.4532 H   0  0
   -4.6569  -14.8276   -0.4634 H   0  0
    1.1638  -11.7166    0.6764 H   0  0
    0.8464  -13.2762    1.4741 H   0  0
    1.3821  -14.4808   -0.6182 H   0  0
    1.6366  -12.9345   -1.4627 H   0  0
    4.9399  -14.3405   -0.5963 H   0  0
    3.8351  -14.0011   -1.9496 H   0  0
    3.4941  -15.3494   -0.8390 H   0  0
    3.5501  -11.7178   -1.2043 H   0  0
    3.1244  -11.3974    0.4944 H   0  0
    5.2820  -12.3114    1.2503 H   0  0
    5.7006  -12.7804   -0.4153 H   0  0
    5.6166  -10.3725   -1.0929 H   0  0
    5.2584   -9.9255    0.5927 H   0  0
    7.6865   -9.6718    0.1012 H   0  0
    7.7714  -11.3869   -0.3657 H   0  0
    7.4133  -10.9400    1.3194 H   0  0
 13  9  1  0
  3  6  2  0
  6  7  1  0
 14 15  2  0
  1  2  2  0
 15 16  1  0
  7  8  2  0
 16 17  2  0
  8 10  1  0
 17 18  1  0
  9  5  1  0
 18 19  2  0
 19 14  1  0
 12 14  1  0
  9 10  2  0
 17 20  1  0
  5  4  2  0
 20 21  1  0
  4  1  1  0
 21 22  1  0
 22 23  1  0
  2  3  1  0
 23 24  1  0
  5  6  1  0
 23 25  1  0
 10 11  1  0
 25 26  1  0
 11 12  1  0
 26 27  1  0
 12 13  2  0
 27 28  1  0
  1 29  1  0
  2 30  1  0
  3 31  1  0
  4 32  1  0
  7 33  1  0
  8 34  1  0
 15 35  1  0
 16 36  1  0
 18 37  1  0
 19 38  1  0
 21 39  1  0
 21 40  1  0
 22 41  1  0
 22 42  1  0
 24 43  1  0
 24 44  1  0
 24 45  1  0
 25 46  1  0
 25 47  1  0
 26 48  1  0
 26 49  1  0
 27 50  1  0
 27 51  1  0
 28 52  1  0
 28 53  1  0
 28 54  1  0
M  END
> <Name>
Molecule

> <Clean Energy>
22.72

> <From>
www.bindingDB.org

> <BindingDB Reactant_set_id>
50413341

> <Ligand InChI>
InChI=1S/C24H26N2O2/c1-3-4-15-26(2)16-17-27-20-12-9-19(10-13-20)24-25-23-21-8-6-5-7-18(21)11-14-22(23)28-24/h5-14H,3-4,15-17H2,1-2H3

> <Ligand InChI Key>
JAYNPQWBDQJHAA-UHFFFAOYSA-N

> <BindingDB MonomerID>
50266162

> <BindingDB Ligand Name>
Butyl-methyl-[2-(4-naphtho[1,2-d]oxazol-2-yl-phenoxy)-ethyl]-amine::CHEMBL512442

> <Target Name>
Tyrosine-protein phosphatase non-receptor type 1

> <Target Source Organism According to Curator or DataSource>
Homo sapiens

> <IC50 (nM)>
2520

> <Curation/DataSource>
ChEMBL

> <Article DOI>
10.1016/j.ejmech.2008.03.009

> <BindingDB Entry DOI>
10.7270/Q2FN1602

> <PMID>
18436346

> <Authors>
Kumar, A; Ahmad, P; Maurya, RA; Singh, AB; Srivastava, AK

> <Institution>
Central Drug Research Institute

> <Link to Ligand in BindingDB>
http://www.bindingdb.org/bind/chemsearch/marvin/MolStructure.jsp?monomerid=50266162

> <Link to Ligand-Target Pair in BindingDB>
http://www.bindingdb.org/jsp/dbsearch/PrimarySearch_ki.jsp?energyterm=kJ/mole&tag=pol&polymerid=2622&target=Tyrosine-protein+phosphatase+non-receptor+type+1&column=ki&startPg=0&Increment=50&submit=Sea
rch
http://www.bindingdb.org/jsp/dbsearch/PrimarySearch_ki.jsp?energyterm=kJ/mole&tag=r21&monomerid=50266162&enzyme=Tyrosine-protein+phosphatase+non-receptor+type+1&column=ki&startPg=0&Increment=50&submit
=Search

> <PubChem CID of Ligand>
25199188

> <PubChem SID of Ligand>
104113654

> <ChEMBL ID of Ligand>
CHEMBL512442

> <ZINC ID of Ligand>
ZINC40880965

> <Number of Protein Chains in Target (bigger than 1 implies a multichain complex)>
1

> <BindingDB Target Chain Sequence>
MEMEKEFEQIDKSGSWAAIYQDIRHEASDFPCRVAKLPKNKNRNRYRDVSPFDHSRIKLHQEDNDYINASLIKMEEAQRSYILTQGPLPNTCGHFWEMVWEQKSRGVVMLNRVMEKGSLKCAQYWPQKEEKEMIFEDTNLKLTLISEDIKSYYTVRQLELENLTTQETREILHFHYTTWPDFGVPESPASFLNFLFKVRE
SGSLSPEHGPVVVHCSAGIGRSGTFCLADTCLLLMDKRKDPSSVDIKKVLLEMRKFRMGLIQTADQLRFSYLAVIEGAKFIMGDSSVQDQWKELSHEDLEPPPEHIPPPPRPPKRILEPHNGKCREFFPNHQWVKEETQEDKDCPIKEEKGSPLNAAPYGIESMSQDTEVRSRVVGGSLRGAQAASPAKGEPSLPEKDED
HALSYWKPFLVNMCVATVLTAGAYLCYRFLFNSNT

> <PDB ID(s) of Target Chain>
1BZJ,1G7G,1GFY,1JF7,1KAK,1KAV,1LQF,1NL9,1NNY,1NO6,1NZ7,1OEM,1OEO,1OES,1OET,1OEU,1OEV,1ONY,1ONZ,1PH0,1PXH,1PYN,1Q1M,1Q6J,1Q6M,1Q6N,1Q6P,1Q6S,1Q6T,1QXK,1SUG,1T48,1T49,1T4J,1WAX,1XBO,2AZR,2B07,2BGD,2BGE,
2CM2,2CM3,2CM7,2CM8,2CMA,2CMB,2CMC,2CNE,2CNF,2CNG,2CNH,2CNI,2F6T,2F6V,2F6W,2F6Y,2F6Z,2F70,2F71,2FJN,2H4G,2H4K,2HB1,2HNP,2HNQ,2QBP,2QBQ,2QBR,2QBS,2VEU,2VEV,2VEW,2VEX,2VEY,2ZMM,2ZN7,3A5J,3CWE,3D9C,3EAX,
3EB1,3EU0,3I7Z,3I80,3SME,4BJO,4I8N,4QBW,4Y14,5K9V,5K9W,5KA0,5KA1,5T19,6B90,6NTP,6W30,7KEY,7KLX,7LFO,7MN9,7MNA,8DU7,8G65,8G67,8G68,8G69,8G6A,8SKL

> <UniProt (SwissProt) Recommended Name of Target Chain>
Tyrosine-protein phosphatase non-receptor type 1

> <UniProt (SwissProt) Entry Name of Target Chain>
PTN1_HUMAN

> <UniProt (SwissProt) Primary ID of Target Chain>
P18031

> <UniProt (SwissProt) Secondary ID(s) of Target Chain>
Q5TGD8 Q9BQV9 Q9NQQ4

$$$$
Molecule
  SciTegic10242319433D

 51 54  0  0  0  0            999 V2000
    6.7766   -3.2320   -0.0772 C   0  0
    5.3735   -1.1647    0.0072 C   0  0
    5.4260   -2.4980   -0.1066 C   0  0
    7.9036   -2.5205    0.0141 C   0  0
    6.6033   -0.3879    0.1215 C   0  0
    7.8763   -1.0706    0.0896 C   0  0
   -0.6977   -0.0501   -0.0744 C   0  0
    0.3672   -1.1336   -0.2129 C   0  0  1  0  0  0
    4.1626   -3.2180   -0.2557 C   0  0
    4.0647   -0.4665    0.0262 C   0  0
    1.6680   -0.4211   -0.0247 O   0  0
    6.9423   -4.7473   -0.0976 C   0  0
    6.5599    0.8438    0.2146 O   0  0
    2.9211   -1.1468   -0.0947 C   0  0
    8.9318   -0.4296    0.1537 O   0  0
    0.0492   -2.3947    0.7146 C   0  0
   -0.4496    1.0948   -0.4684 O   0  0
    2.9970   -2.5902   -0.2681 C   0  0
   -1.9201   -0.3141    0.5458 O   0  0
   -1.1570   -3.2720    0.2838 C   0  0
    8.1800   -5.2420   -0.0559 C   0  0
    5.8113   -5.7017   -0.1203 C   0  0
   -2.7186    0.8716    0.5821 C   0  0
   -2.0269   -2.8926   -0.6570 C   0  0
   -1.3249   -4.5910    0.9111 C   0  0
    6.0180   -7.0152   -0.1019 C   0  0
    8.4073   -6.6930   -0.0431 C   0  0
   -2.3328   -5.3877    0.5546 C   0  0
   -3.1460   -3.7605   -1.0370 C   0  0
    7.3769   -7.5354   -0.0625 C   0  0
   -3.2913   -4.9509   -0.4603 C   0  0
    8.8624   -3.0385    0.0323 H   0  0
    0.3387   -1.4805   -1.2458 H   0  0
    4.1806   -4.3029   -0.3597 H   0  0
    4.0356    0.6171    0.1405 H   0  0
    0.9349   -3.0299    0.7281 H   0  0
   -0.1497   -2.0262    1.7210 H   0  0
    2.0804   -3.1627   -0.4104 H   0  0
    9.0319   -4.5624   -0.0310 H   0  0
    4.7904   -5.3210   -0.1526 H   0  0
   -3.6699    0.6549    1.0678 H   0  0
   -2.9013    1.2184   -0.4350 H   0  0
   -2.1940    1.6465    1.1411 H   0  0
   -1.9032   -1.9270   -1.1474 H   0  0
   -0.6195   -4.9204    1.6740 H   0  0
    5.1711   -7.7013   -0.1164 H   0  0
    9.4252   -7.0820   -0.0176 H   0  0
   -2.4428   -6.3670    1.0205 H   0  0
   -3.8593   -3.4304   -1.7923 H   0  0
    7.5501   -8.6115   -0.0490 H   0  0
   -4.1215   -5.5981   -0.7431 H   0  0
  2  3  2  0
  3  1  1  0
  4  1  2  0
  5  6  1  0
  6  4  1  0
  7  8  1  0
  8 11  1  0
  9  3  1  0
 10  2  1  0
 11 14  1  0
 12  1  1  0
 13  5  2  0
 14 18  1  0
 15  6  2  0
 16  8  1  0
 17  7  2  0
 18  9  2  0
 19  7  1  0
 20 16  1  0
 21 12  2  0
 22 12  1  0
 23 19  1  0
 24 20  2  0
 25 20  1  0
 26 22  2  0
 27 21  1  0
 28 25  2  0
 29 24  1  0
 30 26  1  0
 31 28  1  0
  2  5  1  0
 30 27  2  0
 14 10  2  0
 31 29  2  0
  4 32  1  0
  8 33  1  0
  9 34  1  0
 10 35  1  0
 16 36  1  0
 16 37  1  0
 18 38  1  0
 21 39  1  0
 22 40  1  0
 23 41  1  0
 23 42  1  0
 23 43  1  0
 24 44  1  0
 25 45  1  0
 26 46  1  0
 27 47  1  0
 28 48  1  0
 29 49  1  0
 30 50  1  0
 31 51  1  0
M  END
> <Name>
Molecule

> <Clean Energy>
16.2359

> <From>
www.bindingDB.org

> <BindingDB Reactant_set_id>
50209420

> <Ligand InChI>
InChI=1S/C26H20O5/c1-30-26(29)24(14-17-8-4-2-5-9-17)31-19-12-13-20-21(18-10-6-3-7-11-18)16-23(27)25(28)22(20)15-19/h2-13,15-16,24H,14H2,1H3

> <Ligand InChI Key>
RRBLJFPOJPPJSJ-UHFFFAOYSA-N

> <BindingDB MonomerID>
50115762

> <BindingDB Ligand Name>
2-(7,8-Dioxo-5-phenyl-7,8-dihydro-naphthalen-2-yloxy)-3-phenyl-propionic acid methyl ester::CHEMBL61044

> <Target Name>
Tyrosine-protein phosphatase non-receptor type 1

> <Target Source Organism According to Curator or DataSource>
Homo sapiens

> <IC50 (nM)>
2540

> <Curation/DataSource>
ChEMBL

> <Article DOI>
10.1016/s0960-894x(02)00331-1

> <BindingDB Entry DOI>
10.7270/Q2QZ2999

> <PMID>
12113814

> <Authors>
Ahn, JH; Cho, SY; Ha, JD; Chu, SY; Jung, SH; Jung, YS; Baek, JY; Choi, IK; Shin, EY; Kang, SK; Kim, SS; Cheon, HG; Yang, SD; Choi, JK

> <Institution>
Korea Research Institute of Chemical Technology

> <Link to Ligand in BindingDB>
http://www.bindingdb.org/bind/chemsearch/marvin/MolStructure.jsp?monomerid=50115762

> <Link to Ligand-Target Pair in BindingDB>
http://www.bindingdb.org/jsp/dbsearch/PrimarySearch_ki.jsp?energyterm=kJ/mole&tag=pol&polymerid=2622&target=Tyrosine-protein+phosphatase+non-receptor+type+1&column=ki&startPg=0&Increment=50&submit=Sea
rch
http://www.bindingdb.org/jsp/dbsearch/PrimarySearch_ki.jsp?energyterm=kJ/mole&tag=r21&monomerid=50115762&enzyme=Tyrosine-protein+phosphatase+non-receptor+type+1&column=ki&startPg=0&Increment=50&submit
=Search

> <PubChem CID of Ligand>
44301279

> <PubChem SID of Ligand>
104009610

> <ChEMBL ID of Ligand>
CHEMBL61044

> <ZINC ID of Ligand>
ZINC13443935

> <Number of Protein Chains in Target (bigger than 1 implies a multichain complex)>
1

> <BindingDB Target Chain Sequence>
MEMEKEFEQIDKSGSWAAIYQDIRHEASDFPCRVAKLPKNKNRNRYRDVSPFDHSRIKLHQEDNDYINASLIKMEEAQRSYILTQGPLPNTCGHFWEMVWEQKSRGVVMLNRVMEKGSLKCAQYWPQKEEKEMIFEDTNLKLTLISEDIKSYYTVRQLELENLTTQETREILHFHYTTWPDFGVPESPASFLNFLFKVRE
SGSLSPEHGPVVVHCSAGIGRSGTFCLADTCLLLMDKRKDPSSVDIKKVLLEMRKFRMGLIQTADQLRFSYLAVIEGAKFIMGDSSVQDQWKELSHEDLEPPPEHIPPPPRPPKRILEPHNGKCREFFPNHQWVKEETQEDKDCPIKEEKGSPLNAAPYGIESMSQDTEVRSRVVGGSLRGAQAASPAKGEPSLPEKDED
HALSYWKPFLVNMCVATVLTAGAYLCYRFLFNSNT

> <PDB ID(s) of Target Chain>
1BZJ,1G7G,1GFY,1JF7,1KAK,1KAV,1LQF,1NL9,1NNY,1NO6,1NZ7,1OEM,1OEO,1OES,1OET,1OEU,1OEV,1ONY,1ONZ,1PH0,1PXH,1PYN,1Q1M,1Q6J,1Q6M,1Q6N,1Q6P,1Q6S,1Q6T,1QXK,1SUG,1T48,1T49,1T4J,1WAX,1XBO,2AZR,2B07,2BGD,2BGE,
2CM2,2CM3,2CM7,2CM8,2CMA,2CMB,2CMC,2CNE,2CNF,2CNG,2CNH,2CNI,2F6T,2F6V,2F6W,2F6Y,2F6Z,2F70,2F71,2FJN,2H4G,2H4K,2HB1,2HNP,2HNQ,2QBP,2QBQ,2QBR,2QBS,2VEU,2VEV,2VEW,2VEX,2VEY,2ZMM,2ZN7,3A5J,3CWE,3D9C,3EAX,
3EB1,3EU0,3I7Z,3I80,3SME,4BJO,4I8N,4QBW,4Y14,5K9V,5K9W,5KA0,5KA1,5T19,6B90,6NTP,6W30,7KEY,7KLX,7LFO,7MN9,7MNA,8DU7,8G65,8G67,8G68,8G69,8G6A,8SKL

> <UniProt (SwissProt) Recommended Name of Target Chain>
Tyrosine-protein phosphatase non-receptor type 1

> <UniProt (SwissProt) Entry Name of Target Chain>
PTN1_HUMAN

> <UniProt (SwissProt) Primary ID of Target Chain>
P18031

> <UniProt (SwissProt) Secondary ID(s) of Target Chain>
Q5TGD8 Q9BQV9 Q9NQQ4

$$$$
Molecule
  SciTegic10242319433D

 72 74  0  0  0  0            999 V2000
   24.1592  -17.1393   -0.0271 N   0  0
   25.4247  -17.9009    0.0239 C   0  0
   26.7667  -17.2997   -0.1886 C   0  0
   25.3625  -19.1228    0.2016 O   0  0
   27.8983  -17.9860   -0.0353 C   0  0
   19.1522  -15.7305    0.1640 C   0  0
   19.1218  -17.1796   -0.0646 C   0  0
   20.2830  -17.8534   -0.1199 C   0  0
   20.3154  -15.0979    0.3228 C   0  0
   21.5882  -15.8307    0.2695 C   0  0
   21.5940  -17.1449    0.0611 C   0  0
   22.9155  -17.9449    0.0440 C   0  0
   24.0511  -15.6552   -0.2703 C   0  0  1  0  0  0
   22.8532  -15.0913    0.5058 C   0  0
   25.1937  -14.7566    0.1881 C   0  0
   25.9116  -15.0558    1.3478 O   0  0
   25.3837  -13.6757   -0.3793 O   0  0
   17.8621  -17.8720   -0.2174 O   0  0
   16.7037  -16.9716   -0.1036 C   0  0
   15.3120  -17.7528   -0.2073 C   0  0
   13.9316  -16.9441   -0.0828 C   0  0
   13.6913  -15.6225    0.0138 C   0  0
   12.3626  -15.4356    0.1021 O   0  0
   11.7676  -16.6563    0.0586 C   0  0
   12.6422  -17.5899   -0.0522 N   0  0
   14.6559  -14.4592    0.0311 C   0  0
   10.2815  -16.7980    0.1510 C   0  0
    9.5910  -17.9390    0.0752 C   0  0
    8.0745  -17.8361    0.2318 C   0  0
    7.3424  -19.1779   -0.0178 C   0  0
    5.8182  -18.9967    0.2654 C   0  0
    5.0713  -20.3240    0.0251 C   0  0
    5.2191  -17.9028   -0.6441 C   0  0
   29.1134  -17.3180   -0.2350 O   0  0
   30.2213  -18.1820    0.0298 C   0  0
   31.5341  -17.3854   -0.1316 C   0  0
   26.8280  -16.2519   -0.4827 H   0  0
   27.8791  -19.0409    0.2387 H   0  0
   18.2192  -15.1682    0.2043 H   0  0
   20.2729  -18.9286   -0.2984 H   0  0
   20.3223  -14.0215    0.4946 H   0  0
   22.9562  -18.5422    0.9548 H   0  0
   22.8951  -18.6048   -0.8233 H   0  0
   23.8844  -15.4891   -1.3346 H   0  0
   22.7065  -14.0537    0.2059 H   0  0
   23.0825  -15.1333    1.5706 H   0  0
   25.2596  -15.0666    2.1707 H   0  0
   16.7488  -16.4634    0.8596 H   0  0
   16.7525  -16.2355   -0.9060 H   0  0
   15.3004  -18.2489   -1.1777 H   0  0
   15.3112  -18.5019    0.5845 H   0  0
   14.0995  -13.5264    0.1215 H   0  0
   15.2315  -14.4500   -0.8946 H   0  0
   15.3336  -14.5610    0.8788 H   0  0
    9.7070  -15.8827    0.2938 H   0  0
   10.0851  -18.8964   -0.0903 H   0  0
    7.8530  -17.5043    1.2462 H   0  0
    7.7019  -17.1006   -0.4811 H   0  0
    7.4859  -19.4831   -1.0543 H   0  0
    7.7472  -19.9420    0.6459 H   0  0
    5.6858  -18.7012    1.3062 H   0  0
    4.0090  -20.1852    0.2258 H   0  0
    5.4690  -21.0908    0.6899 H   0  0
    5.2072  -20.6356   -1.0106 H   0  0
    4.1560  -17.7933   -0.4297 H   0  0
    5.3513  -18.1853   -1.6885 H   0  0
    5.7262  -16.9562   -0.4571 H   0  0
   30.1500  -18.5650    1.0478 H   0  0
   30.2110  -19.0145   -0.6737 H   0  0
   32.3831  -18.0387    0.0691 H   0  0
   31.5431  -16.5525    0.5715 H   0  0
   31.6041  -17.0018   -1.1495 H   0  0
 10  9  1  0
  7 18  1  0
  9  6  2  0
 18 19  1  0
 10 11  2  0
 19 20  1  0
  3  5  2  0
 20 21  1  0
 21 22  2  0
  2  3  1  0
  1  2  1  0
  6  7  1  0
  2  4  2  0
 22 23  1  0
 23 24  1  0
 24 25  2  0
 25 21  1  0
 10 14  1  0
 22 26  1  0
 11 12  1  0
 24 27  1  0
 12  1  1  0
 27 28  2  0
 13  1  1  0
 28 29  1  0
 13 14  1  0
 29 30  1  0
  7  8  2  0
 30 31  1  0
 13 15  1  0
 31 32  1  0
  8 11  1  0
 31 33  1  0
  5 34  1  0
 15 16  1  0
 34 35  1  0
 15 17  2  0
 35 36  1  0
  3 37  1  0
  5 38  1  0
  6 39  1  0
  8 40  1  0
  9 41  1  0
 12 42  1  0
 12 43  1  0
 13 44  1  0
 14 45  1  0
 14 46  1  0
 16 47  1  0
 19 48  1  0
 19 49  1  0
 20 50  1  0
 20 51  1  0
 26 52  1  0
 26 53  1  0
 26 54  1  0
 27 55  1  0
 28 56  1  0
 29 57  1  0
 29 58  1  0
 30 59  1  0
 30 60  1  0
 31 61  1  0
 32 62  1  0
 32 63  1  0
 32 64  1  0
 33 65  1  0
 33 66  1  0
 33 67  1  0
 35 68  1  0
 35 69  1  0
 36 70  1  0
 36 71  1  0
 36 72  1  0
M  END
> <Name>
Molecule

> <Clean Energy>
60.1939

> <From>
www.bindingDB.org

> <BindingDB Reactant_set_id>
50711035

> <Ligand InChI>
InChI=1S/C28H36N2O6/c1-5-34-14-13-27(31)30-18-22-16-23(11-10-21(22)17-25(30)28(32)33)35-15-12-24-20(4)36-26(29-24)9-7-6-8-19(2)3/h7,9-11,13-14,16,19,25H,5-6,8,12,15,17-18H2,1-4H3,(H,32,33)/b9-7+,14-13
+/t25-/m0/s1

> <Ligand InChI Key>
FRESKQGVEBEKSK-HGYOGRSYSA-N

> <BindingDB MonomerID>
50361279

> <BindingDB Ligand Name>
CHEMBL1935618

> <Target Name>
Tyrosine-protein phosphatase non-receptor type 1

> <Target Source Organism According to Curator or DataSource>
Homo sapiens

> <IC50 (nM)>
2550

> <Curation/DataSource>
ChEMBL

> <Article DOI>
10.1016/j.bmc.2011.11.035

> <BindingDB Entry DOI>
10.7270/Q2BC3ZZS

> <PMID>
22197396

> <Authors>
Otake, K; Azukizawa, S; Fukui, M; Kunishiro, K; Kamemoto, H; Kanda, M; Miike, T; Kasai, M; Shirahase, H

> <Institution>
Kyoto Pharmaceutical Industries

> <Link to Ligand in BindingDB>
http://www.bindingdb.org/bind/chemsearch/marvin/MolStructure.jsp?monomerid=50361279

> <Link to Ligand-Target Pair in BindingDB>
http://www.bindingdb.org/jsp/dbsearch/PrimarySearch_ki.jsp?energyterm=kJ/mole&tag=pol&polymerid=2622&target=Tyrosine-protein+phosphatase+non-receptor+type+1&column=ki&startPg=0&Increment=50&submit=Sea
rch
http://www.bindingdb.org/jsp/dbsearch/PrimarySearch_ki.jsp?energyterm=kJ/mole&tag=r21&monomerid=50361279&enzyme=Tyrosine-protein+phosphatase+non-receptor+type+1&column=ki&startPg=0&Increment=50&submit
=Search

> <PubChem CID of Ligand>
57395194

> <PubChem SID of Ligand>
136965341

> <ChEMBL ID of Ligand>
CHEMBL1935618

> <ZINC ID of Ligand>
ZINC73220223

> <Number of Protein Chains in Target (bigger than 1 implies a multichain complex)>
1

> <BindingDB Target Chain Sequence>
MEMEKEFEQIDKSGSWAAIYQDIRHEASDFPCRVAKLPKNKNRNRYRDVSPFDHSRIKLHQEDNDYINASLIKMEEAQRSYILTQGPLPNTCGHFWEMVWEQKSRGVVMLNRVMEKGSLKCAQYWPQKEEKEMIFEDTNLKLTLISEDIKSYYTVRQLELENLTTQETREILHFHYTTWPDFGVPESPASFLNFLFKVRE
SGSLSPEHGPVVVHCSAGIGRSGTFCLADTCLLLMDKRKDPSSVDIKKVLLEMRKFRMGLIQTADQLRFSYLAVIEGAKFIMGDSSVQDQWKELSHEDLEPPPEHIPPPPRPPKRILEPHNGKCREFFPNHQWVKEETQEDKDCPIKEEKGSPLNAAPYGIESMSQDTEVRSRVVGGSLRGAQAASPAKGEPSLPEKDED
HALSYWKPFLVNMCVATVLTAGAYLCYRFLFNSNT

> <PDB ID(s) of Target Chain>
1BZJ,1G7G,1GFY,1JF7,1KAK,1KAV,1LQF,1NL9,1NNY,1NO6,1NZ7,1OEM,1OEO,1OES,1OET,1OEU,1OEV,1ONY,1ONZ,1PH0,1PXH,1PYN,1Q1M,1Q6J,1Q6M,1Q6N,1Q6P,1Q6S,1Q6T,1QXK,1SUG,1T48,1T49,1T4J,1WAX,1XBO,2AZR,2B07,2BGD,2BGE,
2CM2,2CM3,2CM7,2CM8,2CMA,2CMB,2CMC,2CNE,2CNF,2CNG,2CNH,2CNI,2F6T,2F6V,2F6W,2F6Y,2F6Z,2F70,2F71,2FJN,2H4G,2H4K,2HB1,2HNP,2HNQ,2QBP,2QBQ,2QBR,2QBS,2VEU,2VEV,2VEW,2VEX,2VEY,2ZMM,2ZN7,3A5J,3CWE,3D9C,3EAX,
3EB1,3EU0,3I7Z,3I80,3SME,4BJO,4I8N,4QBW,4Y14,5K9V,5K9W,5KA0,5KA1,5T19,6B90,6NTP,6W30,7KEY,7KLX,7LFO,7MN9,7MNA,8DU7,8G65,8G67,8G68,8G69,8G6A,8SKL

> <UniProt (SwissProt) Recommended Name of Target Chain>
Tyrosine-protein phosphatase non-receptor type 1

> <UniProt (SwissProt) Entry Name of Target Chain>
PTN1_HUMAN

> <UniProt (SwissProt) Primary ID of Target Chain>
P18031

> <UniProt (SwissProt) Secondary ID(s) of Target Chain>
Q5TGD8 Q9BQV9 Q9NQQ4

$$$$
Molecule
  SciTegic10242319433D

 97101  0  0  0  0            999 V2000
    4.4799    6.3371   -2.5591 C   0  0
    4.5178    5.6856   -1.1700 C   0  0
    4.5774    6.8258   -0.1126 C   0  0
   -4.6677    1.0831    0.5227 C   0  0
   -4.6975   -0.1926   -0.3965 C   0  0  1  0  0  0
   -3.5161   -1.1362   -0.0705 C   0  0
   -3.3541    1.9150    0.2322 C   0  0
   -2.1124    1.0725    0.5874 C   0  0  1  0  0  0
   -2.1810   -0.2805   -0.2868 C   0  0  1  0  0  0
   -0.9175   -1.1602   -0.0227 C   0  0
    0.3627   -0.3801   -0.4861 C   0  0
   -0.7427    1.8109    0.1685 C   0  0  2  0  0  0
    0.5839    0.9196    0.3176 C   0  0  2  0  0  0
    0.8177    3.7748    0.9562 C   0  0
   -0.5677    3.1010    1.0328 C   0  0
    1.9209    3.1933    0.4310 C   0  0
    1.8340    1.7803   -0.2687 C   0  0  1  0  0  0
    3.2403    0.9961   -0.1723 C   0  0  2  0  0  0
    4.4914    1.8935   -0.5330 C   0  0  2  0  0  0
    3.2430    4.0451    0.3965 C   0  0  1  0  0  0
    4.5530    3.1451    0.5167 C   0  0  2  0  0  0
    5.8255    4.0457    0.3052 C   0  0  2  0  0  0
    5.7636    4.7663   -1.0835 C   0  0
    3.2532    4.8016   -0.9873 C   0  0
   -5.9208   -0.9135   -0.2200 O   0  0
   -2.1689    0.8855    2.1539 C   0  0
   -3.5245   -2.3303   -1.0402 C   0  0
   -3.7068   -1.7469    1.3551 C   0  0
    0.9307    0.5288    1.8038 C   0  0
    1.5643    2.0419   -1.8000 C   0  0
    7.0117    3.2127    0.3693 O   0  0
    4.7230    2.6274    2.0234 C   0  0
    4.4319    2.2971   -1.9113 O   0  0
    3.6359    1.8929    2.5772 O   0  0
    8.2212    3.9542    0.3028 C   0  0
    9.5144    3.2021    0.2252 C   0  0
    8.1926    5.1923    0.3026 O   0  0
    9.4557    1.7024    0.2393 C   0  0
   10.7238    3.7792    0.1244 C   0  0
   10.9738    5.2689    0.0801 C   0  0
    3.2262   -0.1762   -0.9806 O   0  0
    4.4377    5.5615   -3.3238 H   0  0
    5.3767    6.9398   -2.7028 H   0  0
    3.5985    6.9734   -2.6387 H   0  0
    4.6053    6.3935    0.8875 H   0  0
    3.6952    7.4586   -0.2098 H   0  0
    5.4735    7.4251   -0.2740 H   0  0
   -5.5415    1.7005    0.3146 H   0  0
   -4.6793    0.7769    1.5687 H   0  0
   -4.6207    0.1214   -1.4374 H   0  0
   -3.3206    2.1807   -0.8244 H   0  0
   -3.3599    2.8226    0.8356 H   0  0
   -2.1542    0.0133   -1.3361 H   0  0
   -0.8437   -1.3810    1.0422 H   0  0
   -0.9989   -2.0917   -0.5827 H   0  0
    1.2317   -1.0248   -0.3549 H   0  0
    0.2545   -0.1253   -1.5404 H   0  0
   -0.8291    2.1140   -0.8749 H   0  0
    0.9145    4.7861    1.3512 H   0  0
   -1.3116    3.8271    0.7048 H   0  0
   -0.7533    2.8346    2.0733 H   0  0
    3.3608    0.6743    0.8621 H   0  0
    5.3899    1.2921   -0.3953 H   0  0
    3.2271    4.7728    1.2078 H   0  0
    5.8702    4.7945    1.0960 H   0  0
    6.6624    5.3690   -1.2138 H   0  0
    5.7105    4.0168   -1.8731 H   0  0
    3.2229    4.0642   -1.7894 H   0  0
    2.3702    5.4381   -1.0445 H   0  0
   -6.0085   -1.2150    0.7820 H   0  0
   -1.3139    0.2937    2.4808 H   0  0
   -3.0910    0.3718    2.4261 H   0  0
   -2.1407    1.8617    2.6381 H   0  0
   -2.6911   -2.9933   -0.8082 H   0  0
   -3.4261   -1.9685   -2.0638 H   0  0
   -4.4622   -2.8764   -0.9369 H   0  0
   -2.8726   -2.4110    1.5810 H   0  0
   -4.6388   -2.3112    1.3875 H   0  0
   -3.7423   -0.9451    2.0926 H   0  0
    1.0911    1.4337    2.3900 H   0  0
    1.8359   -0.0783    1.8187 H   0  0
    0.1054   -0.0396    2.2326 H   0  0
    2.3879    2.6184   -2.2211 H   0  0
    0.6348    2.5994   -1.9157 H   0  0
    1.4836    1.0891   -2.3232 H   0  0
    5.6037    1.9858    2.0539 H   0  0
    4.8868    3.5003    2.6552 H   0  0
    4.4313    1.4458   -2.5261 H   0  0
    2.7732    2.4914    2.5789 H   0  0
   10.4660    1.2982    0.1774 H   0  0
    8.8724    1.3531   -0.6127 H   0  0
    8.9860    1.3653    1.1633 H   0  0
   11.5917    3.1219    0.0704 H   0  0
   12.0444    5.4559   -0.0036 H   0  0
   10.5956    5.7286    0.9932 H   0  0
   10.4621    5.6983   -0.7813 H   0  0
    2.4604   -0.8169   -0.6555 H   0  0
  2  1  1  0
  3  2  1  0
  5  4  1  0
  4  7  1  0
  5  6  1  0
  9  6  1  0
  8  7  1  0
  8  9  1  0
 12  8  1  0
  9 10  1  0
 10 11  1  0
 13 11  1  0
 13 12  1  0
 12 15  1  0
 17 13  1  0
 16 14  2  0
 14 15  1  0
 17 16  1  0
 20 16  1  0
 18 17  1  0
 19 18  1  0
 21 19  1  0
 21 20  1  0
 20 24  1  0
 21 22  1  0
 22 23  1  0
 23  2  1  0
  2 24  1  0
  5 25  1  0
  8 26  1  0
  6 27  1  0
  6 28  1  0
 13 29  1  0
 17 30  1  0
 22 31  1  0
 21 32  1  0
 19 33  1  0
 32 34  1  0
 31 35  1  0
 35 36  1  0
 35 37  2  0
 36 38  1  0
 36 39  2  0
 39 40  1  0
 18 41  1  0
  1 42  1  0
  1 43  1  0
  1 44  1  0
  3 45  1  0
  3 46  1  0
  3 47  1  0
  4 48  1  0
  4 49  1  0
  5 50  1  0
  7 51  1  0
  7 52  1  0
  9 53  1  0
 10 54  1  0
 10 55  1  0
 11 56  1  0
 11 57  1  0
 12 58  1  0
 14 59  1  0
 15 60  1  0
 15 61  1  0
 18 62  1  0
 19 63  1  0
 20 64  1  0
 22 65  1  0
 23 66  1  0
 23 67  1  0
 24 68  1  0
 24 69  1  0
 25 70  1  0
 26 71  1  0
 26 72  1  0
 26 73  1  0
 27 74  1  0
 27 75  1  0
 27 76  1  0
 28 77  1  0
 28 78  1  0
 28 79  1  0
 29 80  1  0
 29 81  1  0
 29 82  1  0
 30 83  1  0
 30 84  1  0
 30 85  1  0
 32 86  1  0
 32 87  1  0
 33 88  1  0
 34 89  1  0
 38 90  1  0
 38 91  1  0
 38 92  1  0
 39 93  1  0
 40 94  1  0
 40 95  1  0
 40 96  1  0
 41 97  1  0
M  END
> <Name>
Molecule

> <Clean Energy>
67.7103

> <From>
www.bindingDB.org

> <BindingDB Reactant_set_id>
50987024

> <Ligand InChI>
InChI=1S/C35H56O6/c1-10-20(2)29(40)41-26-18-30(3,4)17-22-21-11-12-24-32(7)15-14-25(37)31(5,6)23(32)13-16-33(24,8)34(21,9)27(38)28(39)35(22,26)19-36/h10-11,22-28,36-39H,12-19H2,1-9H3/b20-10-/t22-,23-,2
4+,25-,26-,27-,28+,32-,33+,34-,35+/m0/s1

> <Ligand InChI Key>
JIXNEPDMGSNJOM-AUBQSUGRSA-N

> <BindingDB MonomerID>
50279439

> <BindingDB Ligand Name>
CHEMBL3632935

> <Target Name>
Tyrosine-protein phosphatase non-receptor type 1

> <Target Source Organism According to Curator or DataSource>
Homo sapiens

> <IC50 (nM)>
2560

> <Curation/DataSource>
ChEMBL

> <Article DOI>
10.1021/acs.jnatprod.7b00241

> <BindingDB Entry DOI>
10.7270/Q2P271N3

> <PMID>
29064696

> <Authors>
Xiong, J; Wan, J; Ding, J; Wang, PP; Ma, GL; Li, J; Hu, JF

> <Institution>
Fudan University

> <Link to Ligand in BindingDB>
http://www.bindingdb.org/bind/chemsearch/marvin/MolStructure.jsp?monomerid=50279439

> <Link to Ligand-Target Pair in BindingDB>
http://www.bindingdb.org/jsp/dbsearch/PrimarySearch_ki.jsp?energyterm=kJ/mole&tag=pol&polymerid=2622&target=Tyrosine-protein+phosphatase+non-receptor+type+1&column=ki&startPg=0&Increment=50&submit=Sea
rch
http://www.bindingdb.org/jsp/dbsearch/PrimarySearch_ki.jsp?energyterm=kJ/mole&tag=r21&monomerid=50279439&enzyme=Tyrosine-protein+phosphatase+non-receptor+type+1&column=ki&startPg=0&Increment=50&submit
=Search

> <PubChem CID of Ligand>
101600045

> <PubChem SID of Ligand>
406793749

> <Number of Protein Chains in Target (bigger than 1 implies a multichain complex)>
1

> <BindingDB Target Chain Sequence>
MEMEKEFEQIDKSGSWAAIYQDIRHEASDFPCRVAKLPKNKNRNRYRDVSPFDHSRIKLHQEDNDYINASLIKMEEAQRSYILTQGPLPNTCGHFWEMVWEQKSRGVVMLNRVMEKGSLKCAQYWPQKEEKEMIFEDTNLKLTLISEDIKSYYTVRQLELENLTTQETREILHFHYTTWPDFGVPESPASFLNFLFKVRE
SGSLSPEHGPVVVHCSAGIGRSGTFCLADTCLLLMDKRKDPSSVDIKKVLLEMRKFRMGLIQTADQLRFSYLAVIEGAKFIMGDSSVQDQWKELSHEDLEPPPEHIPPPPRPPKRILEPHNGKCREFFPNHQWVKEETQEDKDCPIKEEKGSPLNAAPYGIESMSQDTEVRSRVVGGSLRGAQAASPAKGEPSLPEKDED
HALSYWKPFLVNMCVATVLTAGAYLCYRFLFNSNT

> <PDB ID(s) of Target Chain>
1BZJ,1G7G,1GFY,1JF7,1KAK,1KAV,1LQF,1NL9,1NNY,1NO6,1NZ7,1OEM,1OEO,1OES,1OET,1OEU,1OEV,1ONY,1ONZ,1PH0,1PXH,1PYN,1Q1M,1Q6J,1Q6M,1Q6N,1Q6P,1Q6S,1Q6T,1QXK,1SUG,1T48,1T49,1T4J,1WAX,1XBO,2AZR,2B07,2BGD,2BGE,
2CM2,2CM3,2CM7,2CM8,2CMA,2CMB,2CMC,2CNE,2CNF,2CNG,2CNH,2CNI,2F6T,2F6V,2F6W,2F6Y,2F6Z,2F70,2F71,2FJN,2H4G,2H4K,2HB1,2HNP,2HNQ,2QBP,2QBQ,2QBR,2QBS,2VEU,2VEV,2VEW,2VEX,2VEY,2ZMM,2ZN7,3A5J,3CWE,3D9C,3EAX,
3EB1,3EU0,3I7Z,3I80,3SME,4BJO,4I8N,4QBW,4Y14,5K9V,5K9W,5KA0,5KA1,5T19,6B90,6NTP,6W30,7KEY,7KLX,7LFO,7MN9,7MNA,8DU7,8G65,8G67,8G68,8G69,8G6A,8SKL

> <UniProt (SwissProt) Recommended Name of Target Chain>
Tyrosine-protein phosphatase non-receptor type 1

> <UniProt (SwissProt) Entry Name of Target Chain>
PTN1_HUMAN

> <UniProt (SwissProt) Primary ID of Target Chain>
P18031

> <UniProt (SwissProt) Secondary ID(s) of Target Chain>
Q5TGD8 Q9BQV9 Q9NQQ4

$$$$
Molecule
  SciTegic10242319433D

 89 95  0  0  0  0            999 V2000
   12.0116   -4.7821    0.1239 C   0  0
   13.3329   -3.9869   -0.1147 C   0  0
   14.5514   -4.6017   -0.0039 N   0  0
   13.2578   -2.7982   -0.4463 O   0  0
   15.8815   -3.9250   -0.2742 C   0  0  2  0  0  0
   17.0851   -4.9642   -0.1240 C   0  0
   16.0365   -2.5146    0.5483 C   0  0
   17.3126   -1.5845    0.3450 C   0  0
   17.0031   -6.6329   -0.0673 S   0  0
   18.6743   -6.9469   -0.0096 C   0  0
   19.2921   -5.7312   -0.0278 C   0  0
   18.3225   -4.6433   -0.1041 N   0  0
   18.5033   -2.0849    0.0590 C   0  0
   19.6899   -1.2883   -0.0639 C   0  0
   19.6338    0.0229    0.1019 C   0  0
   18.3242    0.6461    0.4031 C   0  0
   17.2242   -0.1164    0.5266 C   0  0
   20.7873   -5.3602   -0.0076 C   0  0
   21.7513   -6.2834    0.0193 N   0  0
   23.1744   -6.0808    0.0236 C   0  0
   10.7197   -3.8633   -0.0249 C   0  0
    9.3931   -4.6689    0.0504 C   0  0
   20.8267    0.7862    0.0198 O   0  0
   21.9602   -0.1012   -0.2043 C   0  0
   23.2674    0.6381   -0.1374 C   0  0
   24.4151   -0.0404   -0.1800 C   0  0
   25.6944    0.6728   -0.1067 C   0  0
   25.7087    2.0002    0.0022 C   0  0
   24.4457    2.7443    0.0493 C   0  0
   23.2839    2.0949   -0.0159 C   0  0
   21.0863   -4.1610   -0.0315 O   0  0
   23.9426   -7.1692    0.0263 C   0  0
   25.3985   -7.0750    0.0223 C   0  0
   25.9890   -5.8778    0.0148 C   0  0
   25.1523   -4.6595    0.0127 C   0  0
   23.8178   -4.7523    0.0167 C   0  0
   19.2275   -8.3623    0.0434 C   0  0
   18.3628   -9.3752    0.0335 C   0  0
   18.8415  -10.7657    0.0715 C   0  0
   20.1460  -11.0281    0.1126 C   0  0
   21.0960   -9.9326    0.1226 C   0  0
   20.6555   -8.6793    0.0902 C   0  0
    7.8838   -6.3747    0.1663 N   0  0
    9.2937   -6.0058    0.1346 C   0  0
    7.1498   -5.1909    0.0938 C   0  0
    8.0361   -4.1198    0.0239 C   0  0
    7.6273   -2.8581   -0.0513 C   0  0
    6.1555   -2.6221   -0.0595 C   0  0
    5.3041   -3.6581    0.0056 C   0  0
    5.8285   -5.0401    0.0885 C   0  0
   27.4676   -5.7544    0.0076 C   0  0
   28.2866   -6.8848    0.0051 O   0  0
   27.9868   -4.6333    0.0002 O   0  0
   26.1226   -8.2036    0.0238 F   0  0
   11.9526   -5.5907   -0.6047 H   0  0
   12.0306   -5.2000    1.1305 H   0  0
   14.5661   -5.6295    0.2935 H   0  0
   15.8616   -3.6493   -1.3285 H   0  0
   15.1673   -1.9089    0.2918 H   0  0
   16.0033   -2.7683    1.6079 H   0  0
   18.5873   -3.1612   -0.0914 H   0  0
   20.6422   -1.7656   -0.2950 H   0  0
   18.2523    1.7268    0.5252 H   0  0
   16.2654    0.3459    0.7607 H   0  0
   21.4235   -7.3018    0.0404 H   0  0
   10.7240   -3.1249    0.7768 H   0  0
   10.7636   -3.3550   -0.9881 H   0  0
   21.9553   -0.8796    0.5587 H   0  0
   21.8623   -0.5569   -1.1896 H   0  0
   24.4021   -1.1267   -0.2694 H   0  0
   26.6318    0.1176   -0.1413 H   0  0
   26.6581    2.5329    0.0562 H   0  0
   24.4574    3.8306    0.1377 H   0  0
   22.3464    2.6496    0.0214 H   0  0
   23.4726   -8.1526    0.0316 H   0  0
   25.6261   -3.6779    0.0080 H   0  0
   23.2072   -3.8494    0.0148 H   0  0
   17.2925   -9.1724   -0.0030 H   0  0
   18.1238  -11.5861    0.0660 H   0  0
   20.4976  -12.0595    0.1385 H   0  0
   22.1663  -10.1362    0.1566 H   0  0
   21.3786   -7.8638    0.0987 H   0  0
    7.4870   -7.3662    0.2327 H   0  0
   10.1315   -6.7020    0.1729 H   0  0
    8.3366   -2.0321   -0.1046 H   0  0
    5.7690   -1.6046   -0.1186 H   0  0
    4.2284   -3.4820   -0.0025 H   0  0
    5.1591   -5.8987    0.1429 H   0  0
   28.0957   -7.4579    0.8640 H   0  0
  1  2  1  0
  2  3  1  0
  2  4  2  0
  5  3  1  0
  5  6  1  0
  5  7  1  0
  7  8  1  0
  6  9  1  0
  9 10  1  0
 10 11  2  0
 11 12  1  0
 12  6  2  0
  8 13  2  0
 13 14  1  0
 14 15  2  0
 15 16  1  0
 16 17  2  0
 17  8  1  0
 11 18  1  0
 18 19  1  0
 19 20  1  0
  1 21  1  0
 21 22  1  0
 15 23  1  0
 23 24  1  0
 24 25  1  0
 25 26  2  0
 26 27  1  0
 27 28  2  0
 28 29  1  0
 29 30  2  0
 30 25  1  0
 18 31  2  0
 20 32  2  0
 32 33  1  0
 33 34  2  0
 34 35  1  0
 35 36  2  0
 36 20  1  0
 37 38  2  0
 38 39  1  0
 39 40  2  0
 40 41  1  0
 41 42  2  0
 42 37  1  0
 10 37  1  0
 22 46  1  0
 45 43  1  0
 43 44  1  0
 44 22  2  0
 45 46  1  0
 46 47  2  0
 47 48  1  0
 48 49  2  0
 49 50  1  0
 50 45  2  0
 34 51  1  0
 51 52  1  0
 51 53  2  0
 33 54  1  0
  1 55  1  0
  1 56  1  0
  3 57  1  0
  5 58  1  0
  7 59  1  0
  7 60  1  0
 13 61  1  0
 14 62  1  0
 16 63  1  0
 17 64  1  0
 19 65  1  0
 21 66  1  0
 21 67  1  0
 24 68  1  0
 24 69  1  0
 26 70  1  0
 27 71  1  0
 28 72  1  0
 29 73  1  0
 30 74  1  0
 32 75  1  0
 35 76  1  0
 36 77  1  0
 38 78  1  0
 39 79  1  0
 40 80  1  0
 41 81  1  0
 42 82  1  0
 43 83  1  0
 44 84  1  0
 47 85  1  0
 48 86  1  0
 49 87  1  0
 50 88  1  0
 52 89  1  0
M  END
> <Name>
Molecule

> <Clean Energy>
81.8073

> <From>
www.bindingDB.org

> <BindingDB Reactant_set_id>
51080359

> <Ligand InChI>
InChI=1S/C43H35FN4O5S/c44-35-24-31(18-21-34(35)43(51)52)46-41(50)39-40(29-11-5-2-6-12-29)54-42(48-39)37(47-38(49)22-17-30-25-45-36-14-8-7-13-33(30)36)23-27-15-19-32(20-16-27)53-26-28-9-3-1-4-10-28/h1-
16,18-21,24-25,37,45H,17,22-23,26H2,(H,46,50)(H,47,49)(H,51,52)/t37-/m0/s1

> <Ligand InChI Key>
QSUSYMJEVYSFAI-QNGWXLTQSA-N

> <BindingDB MonomerID>
50441780

> <BindingDB Ligand Name>
CHEMBL2436044

> <Target Name>
Tyrosine-protein phosphatase non-receptor type 1

> <Target Source Organism According to Curator or DataSource>
Homo sapiens

> <IC50 (nM)>
2560

> <Curation/DataSource>
ChEMBL

> <Article DOI>
10.1016/j.ejmech.2013.09.017

> <BindingDB Entry DOI>
10.7270/Q2VM4DP1

> <PMID>
24090912

> <Authors>
Chen, YT; Tang, CL; Ma, WP; Gao, LX; Wei, Y; Zhang, W; Li, JY; Li, J; Nan, FJ

> <Institution>
Chinese Academy of Sciences

> <Link to Ligand in BindingDB>
http://www.bindingdb.org/bind/chemsearch/marvin/MolStructure.jsp?monomerid=50441780

> <Link to Ligand-Target Pair in BindingDB>
http://www.bindingdb.org/jsp/dbsearch/PrimarySearch_ki.jsp?energyterm=kJ/mole&tag=pol&polymerid=2622&target=Tyrosine-protein+phosphatase+non-receptor+type+1&column=ki&startPg=0&Increment=50&submit=Sea
rch
http://www.bindingdb.org/jsp/dbsearch/PrimarySearch_ki.jsp?energyterm=kJ/mole&tag=r21&monomerid=50441780&enzyme=Tyrosine-protein+phosphatase+non-receptor+type+1&column=ki&startPg=0&Increment=50&submit
=Search

> <PubChem CID of Ligand>
73357037

> <PubChem SID of Ligand>
175454097

> <ChEMBL ID of Ligand>
CHEMBL2436044

> <ZINC ID of Ligand>
ZINC96285487

> <Number of Protein Chains in Target (bigger than 1 implies a multichain complex)>
1

> <BindingDB Target Chain Sequence>
MEMEKEFEQIDKSGSWAAIYQDIRHEASDFPCRVAKLPKNKNRNRYRDVSPFDHSRIKLHQEDNDYINASLIKMEEAQRSYILTQGPLPNTCGHFWEMVWEQKSRGVVMLNRVMEKGSLKCAQYWPQKEEKEMIFEDTNLKLTLISEDIKSYYTVRQLELENLTTQETREILHFHYTTWPDFGVPESPASFLNFLFKVRE
SGSLSPEHGPVVVHCSAGIGRSGTFCLADTCLLLMDKRKDPSSVDIKKVLLEMRKFRMGLIQTADQLRFSYLAVIEGAKFIMGDSSVQDQWKELSHEDLEPPPEHIPPPPRPPKRILEPHNGKCREFFPNHQWVKEETQEDKDCPIKEEKGSPLNAAPYGIESMSQDTEVRSRVVGGSLRGAQAASPAKGEPSLPEKDED
HALSYWKPFLVNMCVATVLTAGAYLCYRFLFNSNT

> <PDB ID(s) of Target Chain>
1BZJ,1G7G,1GFY,1JF7,1KAK,1KAV,1LQF,1NL9,1NNY,1NO6,1NZ7,1OEM,1OEO,1OES,1OET,1OEU,1OEV,1ONY,1ONZ,1PH0,1PXH,1PYN,1Q1M,1Q6J,1Q6M,1Q6N,1Q6P,1Q6S,1Q6T,1QXK,1SUG,1T48,1T49,1T4J,1WAX,1XBO,2AZR,2B07,2BGD,2BGE,
2CM2,2CM3,2CM7,2CM8,2CMA,2CMB,2CMC,2CNE,2CNF,2CNG,2CNH,2CNI,2F6T,2F6V,2F6W,2F6Y,2F6Z,2F70,2F71,2FJN,2H4G,2H4K,2HB1,2HNP,2HNQ,2QBP,2QBQ,2QBR,2QBS,2VEU,2VEV,2VEW,2VEX,2VEY,2ZMM,2ZN7,3A5J,3CWE,3D9C,3EAX,
3EB1,3EU0,3I7Z,3I80,3SME,4BJO,4I8N,4QBW,4Y14,5K9V,5K9W,5KA0,5KA1,5T19,6B90,6NTP,6W30,7KEY,7KLX,7LFO,7MN9,7MNA,8DU7,8G65,8G67,8G68,8G69,8G6A,8SKL

> <UniProt (SwissProt) Recommended Name of Target Chain>
Tyrosine-protein phosphatase non-receptor type 1

> <UniProt (SwissProt) Entry Name of Target Chain>
PTN1_HUMAN

> <UniProt (SwissProt) Primary ID of Target Chain>
P18031

> <UniProt (SwissProt) Secondary ID(s) of Target Chain>
Q5TGD8 Q9BQV9 Q9NQQ4

$$$$
Molecule
  SciTegic10242319433D

 59 62  0  0  0  0            999 V2000
    2.6617   -0.9587    0.6025 C   0  0
    2.5226    0.3503   -0.2179 C   0  0  1  0  0  0
    1.1910    1.1903    0.1322 C   0  0
    1.7524   -1.3208    1.3535 O   0  0
    3.7584   -1.7984    0.4540 O   0  0
   -3.9350   -1.4630   -0.3520 C   0  0
   -5.1835   -0.7373   -0.0896 C   0  0
   -5.1264    0.5597    0.2283 C   0  0
   -3.8029    1.2394    0.3283 C   0  0
   -2.6818    0.5574    0.0925 C   0  0
   -1.3351    1.1918    0.2113 C   0  0
   -0.2188    0.4883   -0.0395 C   0  0
   -0.3420   -0.9396   -0.4528 C   0  0
   -1.5244   -1.5576   -0.5477 C   0  0
   -2.7527   -0.8400   -0.2665 C   0  0
   -6.4211   -1.4418   -0.1858 O   0  0
   -7.5771   -0.6158    0.0686 C   0  0
   -8.9030   -1.4069    0.0327 C   0  0
   -8.9465   -2.7480   -0.0216 C   0  0
  -10.2451   -3.4406   -0.0510 C   0  0
  -11.3811   -2.7478   -0.0245 C   0  0
  -11.3404   -1.2899    0.0350 C   0  0
  -10.1691   -0.6542    0.0631 C   0  0
   -7.8284   -3.4839   -0.0453 F   0  0
    5.0333    0.7822   -0.2996 C   0  0
    6.2213    1.6674   -0.1322 C   0  0
    7.4173    1.0676   -0.2052 C   0  0
    5.2521   -0.3867   -0.6212 O   0  0
    3.7622    1.2201   -0.1066 N   0  0
    8.7341    1.7484   -0.0963 C   0  0
    8.8415    3.0745   -0.0036 C   0  0
   10.1827    3.6962    0.0808 C   0  0
   11.1562    1.4841   -0.0315 C   0  0
    9.9517    0.9217   -0.1087 C   0  0
   11.2795    2.9354    0.0650 C   0  0
   12.8501    3.6598    0.1533 Cl  0  0
    2.4403    0.0560   -1.2642 H   0  0
    1.2709    1.4983    1.1747 H   0  0
    1.1903    2.0720   -0.5086 H   0  0
    3.8108   -2.1340   -0.5396 H   0  0
   -3.9706   -2.5191   -0.6192 H   0  0
   -6.0438    1.1185    0.4136 H   0  0
   -3.7519    2.2951    0.5946 H   0  0
   -1.2571    2.2386    0.5051 H   0  0
    0.5638   -1.4993   -0.6857 H   0  0
   -1.5649   -2.6073   -0.8383 H   0  0
   -7.6187    0.1663   -0.6894 H   0  0
   -7.4699   -0.1623    1.0539 H   0  0
  -10.2765   -4.5292   -0.0947 H   0  0
  -12.3389   -3.2675   -0.0472 H   0  0
  -12.2694   -0.7201    0.0565 H   0  0
  -10.1478    0.4346    0.1090 H   0  0
    6.1228    2.7392    0.0395 H   0  0
    7.4252   -0.0117   -0.3576 H   0  0
    3.6246    2.2517    0.1417 H   0  0
    7.9470    3.6972    0.0099 H   0  0
   10.2749    4.7797    0.1563 H   0  0
   12.0503    0.8606   -0.0404 H   0  0
    9.8666   -0.1625   -0.1819 H   0  0
  1  2  1  0
  2  3  1  0
  1  4  2  0
  1  5  1  0
  6  7  1  0
  7  8  2  0
  8  9  1  0
  9 10  2  0
 10 11  1  0
 11 12  2  0
 12 13  1  0
 13 14  2  0
 14 15  1  0
  6 15  2  0
 10 15  1  0
 17 18  1  0
 18 19  2  0
 19 20  1  0
 20 21  2  0
 21 22  1  0
 22 23  2  0
 18 23  1  0
 16 17  1  0
 19 24  1  0
  7 16  1  0
  3 12  1  0
 25 26  1  0
 26 27  2  0
 25 28  2  0
 25 29  1  0
 30 31  2  0
 31 32  1  0
 32 35  2  0
 35 33  1  0
 33 34  2  0
 30 34  1  0
 27 30  1  0
  2 29  1  0
 35 36  1  0
  2 37  1  0
  3 38  1  0
  3 39  1  0
  5 40  1  0
  6 41  1  0
  8 42  1  0
  9 43  1  0
 11 44  1  0
 13 45  1  0
 14 46  1  0
 17 47  1  0
 17 48  1  0
 20 49  1  0
 21 50  1  0
 22 51  1  0
 23 52  1  0
 26 53  1  0
 27 54  1  0
 29 55  1  0
 31 56  1  0
 32 57  1  0
 33 58  1  0
 34 59  1  0
M  END
> <Name>
Molecule

> <Clean Energy>
13.8705

> <From>
www.bindingDB.org

> <BindingDB Reactant_set_id>
50657318

> <Ligand InChI>
InChI=1S/C29H23ClFNO4/c30-24-11-6-19(7-12-24)8-14-28(33)32-27(29(34)35)16-20-5-9-22-17-25(13-10-21(22)15-20)36-18-23-3-1-2-4-26(23)31/h1-15,17,27H,16,18H2,(H,32,33)(H,34,35)/b14-8+

> <Ligand InChI Key>
YVEPCRMWSAAWMS-RIYZIHGNSA-N

> <BindingDB MonomerID>
50351782

> <BindingDB Ligand Name>
CHEMBL1823956

> <Target Name>
Tyrosine-protein phosphatase non-receptor type 1

> <Target Source Organism According to Curator or DataSource>
Homo sapiens

> <IC50 (nM)>
2590

> <Curation/DataSource>
ChEMBL

> <Article DOI>
10.1016/j.ejmech.2011.05.027

> <BindingDB Entry DOI>
10.7270/Q2W09685

> <PMID>
21680062

> <Authors>
Sun, LP; Shen, Q; Piao, HH; Ma, WP; Gao, LX; Zhang, W; Nan, FJ; Li, J; Piao, HR

> <Institution>
Yanbian University

> <Link to Ligand in BindingDB>
http://www.bindingdb.org/bind/chemsearch/marvin/MolStructure.jsp?monomerid=50351782

> <Link to Ligand-Target Pair in BindingDB>
http://www.bindingdb.org/jsp/dbsearch/PrimarySearch_ki.jsp?energyterm=kJ/mole&tag=pol&polymerid=2622&target=Tyrosine-protein+phosphatase+non-receptor+type+1&column=ki&startPg=0&Increment=50&submit=Sea
rch
http://www.bindingdb.org/jsp/dbsearch/PrimarySearch_ki.jsp?energyterm=kJ/mole&tag=r21&monomerid=50351782&enzyme=Tyrosine-protein+phosphatase+non-receptor+type+1&column=ki&startPg=0&Increment=50&submit
=Search

> <PubChem CID of Ligand>
54576320

> <PubChem SID of Ligand>
136358468

> <ChEMBL ID of Ligand>
CHEMBL1823956

> <ZINC ID of Ligand>
ZINC72178685

> <Number of Protein Chains in Target (bigger than 1 implies a multichain complex)>
1

> <BindingDB Target Chain Sequence>
MEMEKEFEQIDKSGSWAAIYQDIRHEASDFPCRVAKLPKNKNRNRYRDVSPFDHSRIKLHQEDNDYINASLIKMEEAQRSYILTQGPLPNTCGHFWEMVWEQKSRGVVMLNRVMEKGSLKCAQYWPQKEEKEMIFEDTNLKLTLISEDIKSYYTVRQLELENLTTQETREILHFHYTTWPDFGVPESPASFLNFLFKVRE
SGSLSPEHGPVVVHCSAGIGRSGTFCLADTCLLLMDKRKDPSSVDIKKVLLEMRKFRMGLIQTADQLRFSYLAVIEGAKFIMGDSSVQDQWKELSHEDLEPPPEHIPPPPRPPKRILEPHNGKCREFFPNHQWVKEETQEDKDCPIKEEKGSPLNAAPYGIESMSQDTEVRSRVVGGSLRGAQAASPAKGEPSLPEKDED
HALSYWKPFLVNMCVATVLTAGAYLCYRFLFNSNT

> <PDB ID(s) of Target Chain>
1BZJ,1G7G,1GFY,1JF7,1KAK,1KAV,1LQF,1NL9,1NNY,1NO6,1NZ7,1OEM,1OEO,1OES,1OET,1OEU,1OEV,1ONY,1ONZ,1PH0,1PXH,1PYN,1Q1M,1Q6J,1Q6M,1Q6N,1Q6P,1Q6S,1Q6T,1QXK,1SUG,1T48,1T49,1T4J,1WAX,1XBO,2AZR,2B07,2BGD,2BGE,
2CM2,2CM3,2CM7,2CM8,2CMA,2CMB,2CMC,2CNE,2CNF,2CNG,2CNH,2CNI,2F6T,2F6V,2F6W,2F6Y,2F6Z,2F70,2F71,2FJN,2H4G,2H4K,2HB1,2HNP,2HNQ,2QBP,2QBQ,2QBR,2QBS,2VEU,2VEV,2VEW,2VEX,2VEY,2ZMM,2ZN7,3A5J,3CWE,3D9C,3EAX,
3EB1,3EU0,3I7Z,3I80,3SME,4BJO,4I8N,4QBW,4Y14,5K9V,5K9W,5KA0,5KA1,5T19,6B90,6NTP,6W30,7KEY,7KLX,7LFO,7MN9,7MNA,8DU7,8G65,8G67,8G68,8G69,8G6A,8SKL

> <UniProt (SwissProt) Recommended Name of Target Chain>
Tyrosine-protein phosphatase non-receptor type 1

> <UniProt (SwissProt) Entry Name of Target Chain>
PTN1_HUMAN

> <UniProt (SwissProt) Primary ID of Target Chain>
P18031

> <UniProt (SwissProt) Secondary ID(s) of Target Chain>
Q5TGD8 Q9BQV9 Q9NQQ4

$$$$
Molecule
  SciTegic10242319433D

 58 62  0  0  0  0            999 V2000
    9.3481  -18.7310    0.0807 C   0  0
   10.8307  -18.8280    0.1217 C   0  0
   11.5113  -17.4901    0.1359 N   0  0
   10.4870  -16.4241    0.1203 C   0  0
    8.9502  -17.1132    0.0723 S   0  0
   10.6974  -14.8728    0.1969 S   0  0
   11.4002  -19.9198    0.1489 O   0  0
    8.5126  -19.7858    0.0616 C   0  0
    7.0075  -19.7144    0.0290 C   0  0
    6.3529  -18.5529    0.0221 C   0  0
    4.8813  -18.5222   -0.0011 C   0  0
    4.1794  -19.6579   -0.0154 C   0  0
    4.8949  -20.9406   -0.0101 C   0  0
    6.2303  -20.9677    0.0110 C   0  0
    2.7565  -19.6370   -0.0317 O   0  0
    2.2640  -18.2802   -0.0285 C   0  0
    0.7522  -18.2286   -0.0196 C   0  0
    0.1400  -17.0446   -0.0144 C   0  0
   -1.3229  -16.9677   -0.0047 C   0  0
   -2.0481  -18.0842   -0.0007 C   0  0
   -1.3785  -19.3921   -0.0060 C   0  0
   -0.0457  -19.4619   -0.0151 C   0  0
   13.0440  -17.2467    0.1872 C   0  0  1  0  0  0
   13.9192  -18.3932   -0.3837 C   0  0
   13.4952  -15.7858   -0.2711 C   0  0
   14.9408  -15.3089    0.0354 C   0  0
   15.9937  -16.0407    0.4321 C   0  0
   17.1152  -15.1526    0.5803 N   0  0
   15.3833  -13.9328   -0.0504 C   0  0
   16.6476  -13.8746    0.2708 C   0  0
   17.3851  -12.6247    0.2919 C   0  0
   16.7148  -11.5107   -0.0256 C   0  0
   15.2619  -11.5782   -0.3889 C   0  0
   14.6184  -12.7529   -0.4040 C   0  0
   13.6742  -19.7197   -0.0810 O   0  0
   14.9213  -18.1318   -1.0554 O   0  0
   -3.9483  -17.9799    0.0117 Br  0  0
    8.9636  -20.7781    0.0704 H   0  0
    6.9125  -17.6176    0.0339 H   0  0
    4.3606  -17.5647   -0.0067 H   0  0
    4.3335  -21.8749   -0.0234 H   0  0
    6.7507  -21.9255    0.0149 H   0  0
    2.6390  -17.7715    0.8596 H   0  0
    2.6286  -17.7711   -0.9206 H   0  0
    0.7310  -16.1287   -0.0174 H   0  0
   -1.8177  -15.9965   -0.0008 H   0  0
   -1.9713  -20.3068   -0.0026 H   0  0
    0.4500  -20.4327   -0.0190 H   0  0
   13.2691  -17.2606    1.2536 H   0  0
   13.3664  -15.7373   -1.3524 H   0  0
   12.8182  -15.0785    0.2081 H   0  0
   15.9981  -17.1160    0.6101 H   0  0
   18.1102  -15.4187    0.8703 H   0  0
   18.4423  -12.5946    0.5557 H   0  0
   17.2280  -10.5492   -0.0201 H   0  0
   14.7250  -10.6642   -0.6427 H   0  0
   13.5636  -12.8191   -0.6709 H   0  0
   13.7486  -19.8619    0.9567 H   0  0
  1  2  1  0
  2  3  1  0
  3  4  1  0
  4  5  1  0
  5  1  1  0
  4  6  2  0
  2  7  2  0
  1  8  2  0
  8  9  1  0
  9 10  2  0
 10 11  1  0
 11 12  2  0
 12 13  1  0
 13 14  2  0
 14  9  1  0
 12 15  1  0
 15 16  1  0
 16 17  1  0
 17 18  2  0
 18 19  1  0
 19 20  2  0
 20 21  1  0
 21 22  2  0
 22 17  1  0
  3 23  1  0
 23 24  1  0
 23 25  1  0
 25 26  1  0
 26 27  2  0
 27 28  1  0
 28 30  1  0
 29 26  1  0
 29 30  2  0
 30 31  1  0
 31 32  2  0
 32 33  1  0
 33 34  2  0
 34 29  1  0
 24 35  1  0
 24 36  2  0
 20 37  1  0
  8 38  1  0
 10 39  1  0
 11 40  1  0
 13 41  1  0
 14 42  1  0
 16 43  1  0
 16 44  1  0
 18 45  1  0
 19 46  1  0
 21 47  1  0
 22 48  1  0
 23 49  1  0
 25 50  1  0
 25 51  1  0
 27 52  1  0
 28 53  1  0
 31 54  1  0
 32 55  1  0
 33 56  1  0
 34 57  1  0
 35 58  1  0
M  END
> <Name>
Molecule

> <Clean Energy>
60.0093

> <From>
www.bindingDB.org

> <BindingDB Reactant_set_id>
51252833

> <Ligand InChI>
InChI=1S/C28H21BrN2O4S2/c29-20-9-5-18(6-10-20)16-35-21-11-7-17(8-12-21)13-25-26(32)31(28(36)37-25)24(27(33)34)14-19-15-30-23-4-2-1-3-22(19)23/h1-13,15,24,30H,14,16H2,(H,33,34)/b25-13-

> <Ligand InChI Key>
RQSUDONRRJLUOO-MXAYSNPKSA-N

> <BindingDB MonomerID>
50512284

> <BindingDB Ligand Name>
CHEMBL4464385

> <Target Name>
Tyrosine-protein phosphatase non-receptor type 1

> <Target Source Organism According to Curator or DataSource>
Homo sapiens

> <IC50 (nM)>
2600

> <Curation/DataSource>
ChEMBL

> <Article DOI>
10.1016/j.ejmech.2019.03.059

> <BindingDB Entry DOI>
10.7270/Q2028VWB

> <PMID>
30978561

> <Authors>
Liu, H; Sun, D; Du, H; Zheng, C; Li, J; Piao, H; Li, J; Sun, L

> <Institution>
Yanbian University College of Pharmacy

> <Link to Ligand in BindingDB>
http://www.bindingdb.org/bind/chemsearch/marvin/MolStructure.jsp?monomerid=50512284

> <Link to Ligand-Target Pair in BindingDB>
http://www.bindingdb.org/jsp/dbsearch/PrimarySearch_ki.jsp?energyterm=kJ/mole&tag=pol&polymerid=2622&target=Tyrosine-protein+phosphatase+non-receptor+type+1&column=ki&startPg=0&Increment=50&submit=Sea
rch
http://www.bindingdb.org/jsp/dbsearch/PrimarySearch_ki.jsp?energyterm=kJ/mole&tag=r21&monomerid=50512284&enzyme=Tyrosine-protein+phosphatase+non-receptor+type+1&column=ki&startPg=0&Increment=50&submit
=Search

> <PubChem CID of Ligand>
155530403

> <PubChem SID of Ligand>
440720866

> <Number of Protein Chains in Target (bigger than 1 implies a multichain complex)>
1

> <BindingDB Target Chain Sequence>
MEMEKEFEQIDKSGSWAAIYQDIRHEASDFPCRVAKLPKNKNRNRYRDVSPFDHSRIKLHQEDNDYINASLIKMEEAQRSYILTQGPLPNTCGHFWEMVWEQKSRGVVMLNRVMEKGSLKCAQYWPQKEEKEMIFEDTNLKLTLISEDIKSYYTVRQLELENLTTQETREILHFHYTTWPDFGVPESPASFLNFLFKVRE
SGSLSPEHGPVVVHCSAGIGRSGTFCLADTCLLLMDKRKDPSSVDIKKVLLEMRKFRMGLIQTADQLRFSYLAVIEGAKFIMGDSSVQDQWKELSHEDLEPPPEHIPPPPRPPKRILEPHNGKCREFFPNHQWVKEETQEDKDCPIKEEKGSPLNAAPYGIESMSQDTEVRSRVVGGSLRGAQAASPAKGEPSLPEKDED
HALSYWKPFLVNMCVATVLTAGAYLCYRFLFNSNT

> <PDB ID(s) of Target Chain>
1BZJ,1G7G,1GFY,1JF7,1KAK,1KAV,1LQF,1NL9,1NNY,1NO6,1NZ7,1OEM,1OEO,1OES,1OET,1OEU,1OEV,1ONY,1ONZ,1PH0,1PXH,1PYN,1Q1M,1Q6J,1Q6M,1Q6N,1Q6P,1Q6S,1Q6T,1QXK,1SUG,1T48,1T49,1T4J,1WAX,1XBO,2AZR,2B07,2BGD,2BGE,
2CM2,2CM3,2CM7,2CM8,2CMA,2CMB,2CMC,2CNE,2CNF,2CNG,2CNH,2CNI,2F6T,2F6V,2F6W,2F6Y,2F6Z,2F70,2F71,2FJN,2H4G,2H4K,2HB1,2HNP,2HNQ,2QBP,2QBQ,2QBR,2QBS,2VEU,2VEV,2VEW,2VEX,2VEY,2ZMM,2ZN7,3A5J,3CWE,3D9C,3EAX,
3EB1,3EU0,3I7Z,3I80,3SME,4BJO,4I8N,4QBW,4Y14,5K9V,5K9W,5KA0,5KA1,5T19,6B90,6NTP,6W30,7KEY,7KLX,7LFO,7MN9,7MNA,8DU7,8G65,8G67,8G68,8G69,8G6A,8SKL

> <UniProt (SwissProt) Recommended Name of Target Chain>
Tyrosine-protein phosphatase non-receptor type 1

> <UniProt (SwissProt) Entry Name of Target Chain>
PTN1_HUMAN

> <UniProt (SwissProt) Primary ID of Target Chain>
P18031

> <UniProt (SwissProt) Secondary ID(s) of Target Chain>
Q5TGD8 Q9BQV9 Q9NQQ4

$$$$
Molecule
  SciTegic10242319433D

 42 44  0  0  0  0            999 V2000
   16.7858  -16.5497   -0.0008 C   0  0
   18.1355  -15.9404   -0.0008 C   0  0
   18.2610  -14.6056    0.0003 C   0  0
   17.0882  -13.7848    0.0017 C   0  0
   15.8877  -14.3391    0.0017 C   0  0
   15.6957  -15.7799    0.0003 C   0  0
   19.5702  -13.9731    0.0002 C   0  0
   20.7262  -14.7331   -0.0010 O   0  0
   19.6421  -12.7325    0.0011 O   0  0
   14.2857  -16.4672    0.0001 C   0  0
   12.9708  -15.7049   -0.0001 N   0  0
   12.7240  -14.2569   -0.0010 C   0  0
   11.1073  -13.9655   -0.0009 S   0  0
   10.5108  -15.5168    0.0001 C   0  0
   11.6881  -16.4289    0.0005 C   0  0
   13.5384  -13.3389   -0.0018 O   0  0
   11.5974  -17.6651    0.0012 O   0  0
    9.2163  -15.8714    0.0005 C   0  0
    8.0847  -14.8702    0.0000 C   0  0
    8.3263  -13.5602   -0.0006 C   0  0
    7.2620  -12.5870   -0.0010 C   0  0
    5.9930  -12.9722   -0.0007 C   0  0
    5.6758  -14.4632    0.0001 C   0  0
    6.6931  -15.3307    0.0004 C   0  0
    5.0250  -11.9661   -0.0010 O   0  0
    4.3535  -15.0289    0.0005 O   0  0
    3.2544  -14.1125    0.0002 C   0  0
   16.6820  -17.6348   -0.0018 H   0  0
   19.0225  -16.5740   -0.0018 H   0  0
   17.1852  -12.6991    0.0026 H   0  0
   15.0104  -13.6922    0.0028 H   0  0
   20.7477  -15.3399    0.8557 H   0  0
   14.2632  -17.0959   -0.8900 H   0  0
   14.2629  -17.0959    0.8903 H   0  0
    8.9694  -16.9331    0.0011 H   0  0
    9.3597  -13.2133   -0.0009 H   0  0
    7.5030  -11.5240   -0.0016 H   0  0
    6.4837  -16.4004    0.0009 H   0  0
    5.1387  -11.3700    0.8559 H   0  0
    2.3170  -14.6686    0.0006 H   0  0
    3.3038  -13.4854   -0.8900 H   0  0
    3.3040  -13.4845    0.8898 H   0  0
  3  7  1  0
 12 13  1  0
 13 14  1  0
 14 15  1  0
 15 11  1  0
  3  4  1  0
 12 16  2  0
 15 17  2  0
  7  8  1  0
 14 18  2  0
  7  9  2  0
 18 19  1  0
  4  5  2  0
 19 20  2  0
  6 10  1  0
 20 21  1  0
  2  3  2  0
 21 22  2  0
 10 11  1  0
 22 23  1  0
 11 12  1  0
 23 24  2  0
 24 19  1  0
  5  6  1  0
 22 25  1  0
  6  1  2  0
 23 26  1  0
  1  2  1  0
 26 27  1  0
  1 28  1  0
  2 29  1  0
  4 30  1  0
  5 31  1  0
  8 32  1  0
 10 33  1  0
 10 34  1  0
 18 35  1  0
 20 36  1  0
 21 37  1  0
 24 38  1  0
 25 39  1  0
 27 40  1  0
 27 41  1  0
 27 42  1  0
M  END
> <Name>
Molecule

> <Clean Energy>
38.9266

> <From>
www.bindingDB.org

> <BindingDB Reactant_set_id>
50848961

> <Ligand InChI>
InChI=1S/C19H15NO6S/c1-26-15-8-12(4-7-14(15)21)9-16-17(22)20(19(25)27-16)10-11-2-5-13(6-3-11)18(23)24/h2-9,21H,10H2,1H3,(H,23,24)/b16-9-

> <Ligand InChI Key>
QZDNSDYYDJVQFV-SXGWCWSVSA-N

> <BindingDB MonomerID>
50214529

> <BindingDB Ligand Name>
4-[5-(4-hydroxy-3-methoxybenzylidene)-2,4-dioxothiazolidin-3-yl]methylbenzoic acid::CHEMBL235805

> <Target Name>
Tyrosine-protein phosphatase non-receptor type 1

> <Target Source Organism According to Curator or DataSource>
Homo sapiens

> <IC50 (nM)>
2600

> <Curation/DataSource>
ChEMBL

> <Article DOI>
10.1016/j.bmc.2007.05.027

> <BindingDB Entry DOI>
10.7270/Q2QR4XXH

> <PMID>
17543532

> <Authors>
Maccari, R; Paoli, P; Ottana, R; Jacomelli, M; Ciurleo, R; Manao, G; Steindl, T; Langer, T; Vigorita, MG; Camici, G

> <Institution>
Universit&#163; di Messina

> <Link to Ligand in BindingDB>
http://www.bindingdb.org/bind/chemsearch/marvin/MolStructure.jsp?monomerid=50214529

> <Link to Ligand-Target Pair in BindingDB>
http://www.bindingdb.org/jsp/dbsearch/PrimarySearch_ki.jsp?energyterm=kJ/mole&tag=pol&polymerid=2622&target=Tyrosine-protein+phosphatase+non-receptor+type+1&column=ki&startPg=0&Increment=50&submit=Sea
rch
http://www.bindingdb.org/jsp/dbsearch/PrimarySearch_ki.jsp?energyterm=kJ/mole&tag=r21&monomerid=50214529&enzyme=Tyrosine-protein+phosphatase+non-receptor+type+1&column=ki&startPg=0&Increment=50&submit
=Search

> <PubChem CID of Ligand>
1967843

> <PubChem SID of Ligand>
104089504

> <ChEMBL ID of Ligand>
CHEMBL235805

> <ZINC ID of Ligand>
ZINC13541343

> <Number of Protein Chains in Target (bigger than 1 implies a multichain complex)>
1

> <BindingDB Target Chain Sequence>
MEMEKEFEQIDKSGSWAAIYQDIRHEASDFPCRVAKLPKNKNRNRYRDVSPFDHSRIKLHQEDNDYINASLIKMEEAQRSYILTQGPLPNTCGHFWEMVWEQKSRGVVMLNRVMEKGSLKCAQYWPQKEEKEMIFEDTNLKLTLISEDIKSYYTVRQLELENLTTQETREILHFHYTTWPDFGVPESPASFLNFLFKVRE
SGSLSPEHGPVVVHCSAGIGRSGTFCLADTCLLLMDKRKDPSSVDIKKVLLEMRKFRMGLIQTADQLRFSYLAVIEGAKFIMGDSSVQDQWKELSHEDLEPPPEHIPPPPRPPKRILEPHNGKCREFFPNHQWVKEETQEDKDCPIKEEKGSPLNAAPYGIESMSQDTEVRSRVVGGSLRGAQAASPAKGEPSLPEKDED
HALSYWKPFLVNMCVATVLTAGAYLCYRFLFNSNT

> <PDB ID(s) of Target Chain>
1BZJ,1G7G,1GFY,1JF7,1KAK,1KAV,1LQF,1NL9,1NNY,1NO6,1NZ7,1OEM,1OEO,1OES,1OET,1OEU,1OEV,1ONY,1ONZ,1PH0,1PXH,1PYN,1Q1M,1Q6J,1Q6M,1Q6N,1Q6P,1Q6S,1Q6T,1QXK,1SUG,1T48,1T49,1T4J,1WAX,1XBO,2AZR,2B07,2BGD,2BGE,
2CM2,2CM3,2CM7,2CM8,2CMA,2CMB,2CMC,2CNE,2CNF,2CNG,2CNH,2CNI,2F6T,2F6V,2F6W,2F6Y,2F6Z,2F70,2F71,2FJN,2H4G,2H4K,2HB1,2HNP,2HNQ,2QBP,2QBQ,2QBR,2QBS,2VEU,2VEV,2VEW,2VEX,2VEY,2ZMM,2ZN7,3A5J,3CWE,3D9C,3EAX,
3EB1,3EU0,3I7Z,3I80,3SME,4BJO,4I8N,4QBW,4Y14,5K9V,5K9W,5KA0,5KA1,5T19,6B90,6NTP,6W30,7KEY,7KLX,7LFO,7MN9,7MNA,8DU7,8G65,8G67,8G68,8G69,8G6A,8SKL

> <UniProt (SwissProt) Recommended Name of Target Chain>
Tyrosine-protein phosphatase non-receptor type 1

> <UniProt (SwissProt) Entry Name of Target Chain>
PTN1_HUMAN

> <UniProt (SwissProt) Primary ID of Target Chain>
P18031

> <UniProt (SwissProt) Secondary ID(s) of Target Chain>
Q5TGD8 Q9BQV9 Q9NQQ4

$$$$
Molecule
  SciTegic10242319433D

 54 57  0  0  0  0            999 V2000
    1.5402  -11.5937   -0.0001 C   0  0
    9.4477   -4.0455   -0.0008 O   0  0
   -0.9939  -10.3959   -0.0001 C   0  0
    0.2140   -9.5623    0.0001 C   0  0
    8.9126  -11.2640    0.0003 C   0  0
    6.4780  -11.2748    0.0002 C   0  0
    1.4209  -10.1306    0.0001 C   0  0
   -0.8851  -11.7229   -0.0003 C   0  0
    2.8935  -12.2702   -0.0001 C   0  0
    6.4442   -9.9433    0.0001 C   0  0
    9.9350   -5.1810   -0.0005 C   0  0
   12.6854   -7.4754    0.0002 O   0  0
    7.7016   -9.1766    0.0001 C   0  0
   10.1894   -9.0411    0.0002 C   0  0
    5.2961  -12.0492    0.0002 O   0  0
   11.5739   -6.9281    0.0000 C   0  0
    8.8865   -9.7995    0.0002 C   0  0
   10.2986   -7.7073    0.0000 C   0  0
    9.0488   -6.5938   -0.0003 S   0  0
   11.3278   -5.4587   -0.0003 N   0  0
    4.0789  -11.2687    0.0001 C   0  0
    7.7765  -11.9613    0.0003 C   0  0
    0.4399  -12.3470   -0.0003 C   0  0
   12.2631   -4.2973   -0.0004 C   0  0
   13.8018   -4.3614   -0.0001 C   0  0
   14.5232   -5.4802    0.0003 C   0  0
   15.9973   -5.4127    0.0006 C   0  0
   16.6121   -4.2276    0.0005 C   0  0
   15.8275   -3.0064    0.0000 C   0  0
   14.5003   -3.0684   -0.0003 C   0  0
   18.0711   -4.1461    0.0008 C   0  0
   18.8374   -5.3041    0.0012 O   0  0
   18.6237   -3.0384    0.0006 O   0  0
   -1.9790   -9.9292   -0.0001 H   0  0
    0.1247   -8.4759    0.0002 H   0  0
    9.8686  -11.7877    0.0004 H   0  0
    2.3168   -9.5097    0.0002 H   0  0
   -1.7809  -12.3439   -0.0005 H   0  0
    2.9682  -12.8949    0.8900 H   0  0
    2.9683  -12.8948   -0.8902 H   0  0
    5.4871   -9.4217    0.0000 H   0  0
    7.6669   -8.0872    0.0000 H   0  0
   11.1114   -9.6225    0.0004 H   0  0
    4.0378  -10.6410   -0.8901 H   0  0
    4.0376  -10.6410    0.8902 H   0  0
    7.8115  -13.0508    0.0004 H   0  0
    0.5271  -13.4335   -0.0004 H   0  0
   12.0036   -3.7246   -0.8908 H   0  0
   12.0032   -3.7241    0.8895 H   0  0
   14.0235   -6.4490    0.0005 H   0  0
   16.5846   -6.3309    0.0010 H   0  0
   16.3275   -2.0379   -0.0001 H   0  0
   13.9203   -2.1456   -0.0006 H   0  0
   18.6179   -5.8693    0.8585 H   0  0
  9  1  1  0
  6 22  1  0
 17 13  2  0
 11  2  2  0
  8 23  1  0
 23  1  2  0
 22  5  2  0
 17 14  1  0
 11 19  1  0
 21  9  1  0
  4  3  1  0
 16 20  1  0
 15 21  1  0
 19 18  1  0
 14 18  2  0
 10  6  2  0
  6 15  1  0
  7  4  2  0
 16 12  2  0
 20 11  1  0
  5 17  1  0
 18 16  1  0
  1  7  1  0
 13 10  1  0
  3  8  2  0
 20 24  1  0
 24 25  1  0
 25 26  2  0
 26 27  1  0
 27 28  2  0
 28 29  1  0
 29 30  2  0
 30 25  1  0
 28 31  1  0
 31 32  1  0
 31 33  2  0
  3 34  1  0
  4 35  1  0
  5 36  1  0
  7 37  1  0
  8 38  1  0
  9 39  1  0
  9 40  1  0
 10 41  1  0
 13 42  1  0
 14 43  1  0
 21 44  1  0
 21 45  1  0
 22 46  1  0
 23 47  1  0
 24 48  1  0
 24 49  1  0
 26 50  1  0
 27 51  1  0
 29 52  1  0
 30 53  1  0
 32 54  1  0
M  END
> <Name>
Molecule

> <Clean Energy>
31.9612

> <From>
www.bindingDB.org

> <BindingDB Reactant_set_id>
50077165

> <Ligand InChI>
InChI=1S/C26H21NO5S/c28-24-23(33-26(31)27(24)17-20-6-10-21(11-7-20)25(29)30)16-19-8-12-22(13-9-19)32-15-14-18-4-2-1-3-5-18/h1-13,16H,14-15,17H2,(H,29,30)/b23-16-

> <Ligand InChI Key>
PMDRYSJTYCYSEO-KQWNVCNZSA-N

> <BindingDB MonomerID>
50444696

> <BindingDB Ligand Name>
CHEMBL3098942

> <Target Name>
Tyrosine-protein phosphatase non-receptor type 1

> <Target Source Organism According to Curator or DataSource>
Homo sapiens

> <IC50 (nM)>
2600

> <Curation/DataSource>
ChEMBL

> <Article DOI>
10.1016/j.ejmech.2013.11.001

> <BindingDB Entry DOI>
10.7270/Q2VH5Q95

> <PMID>
24287560

> <Authors>
Ottana, R; Maccari, R; Mortier, J; Caselli, A; Amuso, S; Camici, G; Rotondo, A; Wolber, G; Paoli, P

> <Institution>
University of Messina

> <Link to Ligand in BindingDB>
http://www.bindingdb.org/bind/chemsearch/marvin/MolStructure.jsp?monomerid=50444696

> <Link to Ligand-Target Pair in BindingDB>
http://www.bindingdb.org/jsp/dbsearch/PrimarySearch_ki.jsp?energyterm=kJ/mole&tag=pol&polymerid=2622&target=Tyrosine-protein+phosphatase+non-receptor+type+1&column=ki&startPg=0&Increment=50&submit=Sea
rch
http://www.bindingdb.org/jsp/dbsearch/PrimarySearch_ki.jsp?energyterm=kJ/mole&tag=r21&monomerid=50444696&enzyme=Tyrosine-protein+phosphatase+non-receptor+type+1&column=ki&startPg=0&Increment=50&submit
=Search

> <PubChem CID of Ligand>
76335442

> <PubChem SID of Ligand>
194942592

> <ChEMBL ID of Ligand>
CHEMBL3098942

> <Number of Protein Chains in Target (bigger than 1 implies a multichain complex)>
1

> <BindingDB Target Chain Sequence>
MEMEKEFEQIDKSGSWAAIYQDIRHEASDFPCRVAKLPKNKNRNRYRDVSPFDHSRIKLHQEDNDYINASLIKMEEAQRSYILTQGPLPNTCGHFWEMVWEQKSRGVVMLNRVMEKGSLKCAQYWPQKEEKEMIFEDTNLKLTLISEDIKSYYTVRQLELENLTTQETREILHFHYTTWPDFGVPESPASFLNFLFKVRE
SGSLSPEHGPVVVHCSAGIGRSGTFCLADTCLLLMDKRKDPSSVDIKKVLLEMRKFRMGLIQTADQLRFSYLAVIEGAKFIMGDSSVQDQWKELSHEDLEPPPEHIPPPPRPPKRILEPHNGKCREFFPNHQWVKEETQEDKDCPIKEEKGSPLNAAPYGIESMSQDTEVRSRVVGGSLRGAQAASPAKGEPSLPEKDED
HALSYWKPFLVNMCVATVLTAGAYLCYRFLFNSNT

> <PDB ID(s) of Target Chain>
1BZJ,1G7G,1GFY,1JF7,1KAK,1KAV,1LQF,1NL9,1NNY,1NO6,1NZ7,1OEM,1OEO,1OES,1OET,1OEU,1OEV,1ONY,1ONZ,1PH0,1PXH,1PYN,1Q1M,1Q6J,1Q6M,1Q6N,1Q6P,1Q6S,1Q6T,1QXK,1SUG,1T48,1T49,1T4J,1WAX,1XBO,2AZR,2B07,2BGD,2BGE,
2CM2,2CM3,2CM7,2CM8,2CMA,2CMB,2CMC,2CNE,2CNF,2CNG,2CNH,2CNI,2F6T,2F6V,2F6W,2F6Y,2F6Z,2F70,2F71,2FJN,2H4G,2H4K,2HB1,2HNP,2HNQ,2QBP,2QBQ,2QBR,2QBS,2VEU,2VEV,2VEW,2VEX,2VEY,2ZMM,2ZN7,3A5J,3CWE,3D9C,3EAX,
3EB1,3EU0,3I7Z,3I80,3SME,4BJO,4I8N,4QBW,4Y14,5K9V,5K9W,5KA0,5KA1,5T19,6B90,6NTP,6W30,7KEY,7KLX,7LFO,7MN9,7MNA,8DU7,8G65,8G67,8G68,8G69,8G6A,8SKL

> <UniProt (SwissProt) Recommended Name of Target Chain>
Tyrosine-protein phosphatase non-receptor type 1

> <UniProt (SwissProt) Entry Name of Target Chain>
PTN1_HUMAN

> <UniProt (SwissProt) Primary ID of Target Chain>
P18031

> <UniProt (SwissProt) Secondary ID(s) of Target Chain>
Q5TGD8 Q9BQV9 Q9NQQ4

$$$$
Molecule
  SciTegic10242319433D

 48 50  0  0  0  0            999 V2000
    5.1076   -7.2444   -0.0160 C   0  0
    6.3566   -8.0025   -0.0114 C   0  0
    7.5291   -7.3680   -0.0125 C   0  0
    5.1357   -6.0089   -0.0237 O   0  0
    3.8216   -7.9457   -0.0036 C   0  0
    2.6875   -7.2479    0.0000 C   0  0
    1.3982   -7.9420    0.0178 C   0  0
    1.3542   -9.2741    0.0298 C   0  0
    2.6057  -10.0443    0.0234 C   0  0
    3.7791   -9.4119    0.0079 C   0  0
    0.1134   -9.9370    0.0539 N   0  0
   -1.1075   -9.1403    0.1627 C   0  0
   -2.3687   -9.8794   -0.3250 C   0  0
   -2.4170  -11.2825    0.2703 C   0  0
   -1.2245  -12.0269   -0.3228 C   0  0
    0.0943  -11.3930    0.1643 C   0  0
    8.8559   -8.0635   -0.0073 C   0  0
    8.9915   -9.4030   -0.0039 C   0  0
   10.3442   -9.9918    0.0009 C   0  0
   11.4239   -9.2154    0.0016 C   0  0
   11.2774   -7.7682   -0.0021 C   0  0
   10.0635   -7.2214   -0.0065 C   0  0
    7.8749  -10.2604   -0.0044 O   0  0
    8.2715  -11.6388   -0.0001 C   0  0
   12.6919   -9.7869    0.0059 O   0  0
   12.8225   -6.6604   -0.0008 Br  0  0
    6.3296   -9.0922   -0.0072 H   0  0
    7.5219   -6.2780   -0.0173 H   0  0
    2.7189   -6.1584   -0.0103 H   0  0
    0.4718   -7.3676    0.0214 H   0  0
    2.5745  -11.1338    0.0315 H   0  0
    4.7068   -9.9842    0.0037 H   0  0
   -1.2499   -8.8683    1.2086 H   0  0
   -0.9844   -8.2369   -0.4347 H   0  0
   -3.2542   -9.3252   -0.0138 H   0  0
   -2.3472   -9.9498   -1.4125 H   0  0
   -2.3340  -11.2370    1.3562 H   0  0
   -3.3482  -11.7788   -0.0030 H   0  0
   -1.2596  -13.0703   -0.0096 H   0  0
   -1.2704  -11.9717   -1.4104 H   0  0
    0.2413  -11.6620    1.2103 H   0  0
    0.9123  -11.7954   -0.4333 H   0  0
   10.4600  -11.0756    0.0040 H   0  0
    9.9624   -6.1361   -0.0096 H   0  0
    7.3847  -12.2725   -0.0006 H   0  0
    8.8637  -11.8442    0.8916 H   0  0
    8.8678  -11.8485   -0.8881 H   0  0
   12.8061  -10.3800    0.8648 H   0  0
  1  2  1  0
  2  3  2  0
  1  4  2  0
  5  6  2  0
  6  7  1  0
  7  8  2  0
  8  9  1  0
  9 10  2  0
  5 10  1  0
 11 12  1  0
 12 13  1  0
 13 14  1  0
 14 15  1  0
 15 16  1  0
 11 16  1  0
  8 11  1  0
  1  5  1  0
 17 18  2  0
 18 19  1  0
 19 20  2  0
 20 21  1  0
 21 22  2  0
 17 22  1  0
 23 24  1  0
 18 23  1  0
 20 25  1  0
 21 26  1  0
  3 17  1  0
  2 27  1  0
  3 28  1  0
  6 29  1  0
  7 30  1  0
  9 31  1  0
 10 32  1  0
 12 33  1  0
 12 34  1  0
 13 35  1  0
 13 36  1  0
 14 37  1  0
 14 38  1  0
 15 39  1  0
 15 40  1  0
 16 41  1  0
 16 42  1  0
 19 43  1  0
 22 44  1  0
 24 45  1  0
 24 46  1  0
 24 47  1  0
 25 48  1  0
M  END
> <Name>
Molecule

> <Clean Energy>
2.9427

> <From>
www.bindingDB.org

> <BindingDB Reactant_set_id>
50641699

> <Ligand InChI>
InChI=1S/C21H22BrNO3/c1-26-21-14-20(25)18(22)13-16(21)7-10-19(24)15-5-8-17(9-6-15)23-11-3-2-4-12-23/h5-10,13-14,25H,2-4,11-12H2,1H3/b10-7+

> <Ligand InChI Key>
JCBNJBNNERRHFS-JXMROGBWSA-N

> <BindingDB MonomerID>
50344597

> <BindingDB Ligand Name>
(E)-3-(5-Bromo-4-hydroxy-2-methoxyphenyl)-1-(4-(piperidin-1-yl)phenyl)prop-2-en-1-one::CHEMBL1778922

> <Target Name>
Tyrosine-protein phosphatase non-receptor type 1

> <Target Source Organism According to Curator or DataSource>
Homo sapiens

> <IC50 (nM)>
2600

> <Curation/DataSource>
ChEMBL

> <Article DOI>
10.1016/j.bmcl.2011.04.057

> <BindingDB Entry DOI>
10.7270/Q23J3D96

> <PMID>
21555221

> <Authors>
Liu, Z; Lee, W; Kim, SN; Yoon, G; Cheon, SH

> <Institution>
Chonnam National University

> <Link to Ligand in BindingDB>
http://www.bindingdb.org/bind/chemsearch/marvin/MolStructure.jsp?monomerid=50344597

> <Link to Ligand-Target Pair in BindingDB>
http://www.bindingdb.org/jsp/dbsearch/PrimarySearch_ki.jsp?energyterm=kJ/mole&tag=pol&polymerid=2622&target=Tyrosine-protein+phosphatase+non-receptor+type+1&column=ki&startPg=0&Increment=50&submit=Sea
rch
http://www.bindingdb.org/jsp/dbsearch/PrimarySearch_ki.jsp?energyterm=kJ/mole&tag=r21&monomerid=50344597&enzyme=Tyrosine-protein+phosphatase+non-receptor+type+1&column=ki&startPg=0&Increment=50&submit
=Search

> <PubChem CID of Ligand>
54580827

> <PubChem SID of Ligand>
131347533

> <ChEMBL ID of Ligand>
CHEMBL1778922

> <ZINC ID of Ligand>
ZINC71340653

> <Number of Protein Chains in Target (bigger than 1 implies a multichain complex)>
1

> <BindingDB Target Chain Sequence>
MEMEKEFEQIDKSGSWAAIYQDIRHEASDFPCRVAKLPKNKNRNRYRDVSPFDHSRIKLHQEDNDYINASLIKMEEAQRSYILTQGPLPNTCGHFWEMVWEQKSRGVVMLNRVMEKGSLKCAQYWPQKEEKEMIFEDTNLKLTLISEDIKSYYTVRQLELENLTTQETREILHFHYTTWPDFGVPESPASFLNFLFKVRE
SGSLSPEHGPVVVHCSAGIGRSGTFCLADTCLLLMDKRKDPSSVDIKKVLLEMRKFRMGLIQTADQLRFSYLAVIEGAKFIMGDSSVQDQWKELSHEDLEPPPEHIPPPPRPPKRILEPHNGKCREFFPNHQWVKEETQEDKDCPIKEEKGSPLNAAPYGIESMSQDTEVRSRVVGGSLRGAQAASPAKGEPSLPEKDED
HALSYWKPFLVNMCVATVLTAGAYLCYRFLFNSNT

> <PDB ID(s) of Target Chain>
1BZJ,1G7G,1GFY,1JF7,1KAK,1KAV,1LQF,1NL9,1NNY,1NO6,1NZ7,1OEM,1OEO,1OES,1OET,1OEU,1OEV,1ONY,1ONZ,1PH0,1PXH,1PYN,1Q1M,1Q6J,1Q6M,1Q6N,1Q6P,1Q6S,1Q6T,1QXK,1SUG,1T48,1T49,1T4J,1WAX,1XBO,2AZR,2B07,2BGD,2BGE,
2CM2,2CM3,2CM7,2CM8,2CMA,2CMB,2CMC,2CNE,2CNF,2CNG,2CNH,2CNI,2F6T,2F6V,2F6W,2F6Y,2F6Z,2F70,2F71,2FJN,2H4G,2H4K,2HB1,2HNP,2HNQ,2QBP,2QBQ,2QBR,2QBS,2VEU,2VEV,2VEW,2VEX,2VEY,2ZMM,2ZN7,3A5J,3CWE,3D9C,3EAX,
3EB1,3EU0,3I7Z,3I80,3SME,4BJO,4I8N,4QBW,4Y14,5K9V,5K9W,5KA0,5KA1,5T19,6B90,6NTP,6W30,7KEY,7KLX,7LFO,7MN9,7MNA,8DU7,8G65,8G67,8G68,8G69,8G6A,8SKL

> <UniProt (SwissProt) Recommended Name of Target Chain>
Tyrosine-protein phosphatase non-receptor type 1

> <UniProt (SwissProt) Entry Name of Target Chain>
PTN1_HUMAN

> <UniProt (SwissProt) Primary ID of Target Chain>
P18031

> <UniProt (SwissProt) Secondary ID(s) of Target Chain>
Q5TGD8 Q9BQV9 Q9NQQ4

$$$$
Molecule
  SciTegic10242319433D

 80 85  0  0  0  0            999 V2000
   -4.6255   -2.9124    0.1716 C   0  0
   -4.4616    0.1586    0.0774 C   0  0
   -3.2388   -0.6704    0.5984 C   0  0  1  0  0  0
   -3.2951   -2.0715   -0.1532 C   0  0  1  0  0  0
   -2.0197   -2.9280    0.1312 C   0  0
   -0.7616   -2.1561   -0.4139 C   0  0
   -1.8994    0.0424    0.1431 C   0  0  2  0  0  0
   -0.5572   -0.8095    0.3163 C   0  0  2  0  0  0
   -0.3463    2.0465    0.7683 C   0  0
   -1.7344    1.3926    0.9092 C   0  0
    0.7312    1.4366    0.2400 C   0  0
    0.6131    0.0278   -0.4000 C   0  0  1  0  0  0
    1.9642   -0.6983   -0.4429 C   0  0
    3.0613    0.2267   -1.1008 C   0  0
    2.0277    2.2577    0.1524 C   0  0  1  0  0  0
    3.3855    1.3891   -0.1099 C   0  0  2  0  0  0
    4.4950    2.3267   -0.7753 C   0  0
    4.3917    3.6459   -0.1184 C   0  0
    3.1037    4.3171   -0.7477 C   0  0
    1.9395    3.2194   -1.0016 C   0  0
    3.3950    4.9807   -2.1020 C   0  0
    2.6751    5.4276    0.2526 C   0  0
    3.9195    0.8089    1.2314 C   0  0
    3.4355   -0.1789    1.7923 O   0  0
    5.0611    1.3784    1.7941 O   0  0
   -0.1314   -1.1078    1.8033 C   0  0
   -3.3066   -0.7673    2.1674 C   0  0
    0.2883    0.2272   -1.9230 C   0  0
   -4.7676   -3.5223    1.6114 C   0  0
   -4.7248   -4.1541   -0.7302 C   0  0
   -5.8012   -2.0267   -0.0131 C   0  0
   -5.7353   -0.6808   -0.0512 C   0  0
   -7.0742   -0.2277   -0.2690 C   0  0
   -7.8200   -1.2690   -0.3447 N   0  0
   -7.0848   -2.3800   -0.1878 O   0  0
   -4.6514    0.9748    0.7744 H   0  0
   -4.2134    0.5670   -0.9023 H   0  0
   -3.3050   -1.8596   -1.2223 H   0  0
   -1.9160   -3.0861    1.2046 H   0  0
   -2.1052   -3.8912   -0.3719 H   0  0
    0.1235   -2.7752   -0.2674 H   0  0
   -0.8989   -1.9637   -1.4780 H   0  0
   -2.0003    0.2792   -0.9160 H   0  0
   -0.2289    3.0715    1.1200 H   0  0
   -2.4793    2.0918    0.5291 H   0  0
   -1.9164    1.2069    1.9677 H   0  0
    2.2689   -0.9514    0.5726 H   0  0
    1.8636   -1.6108   -1.0306 H   0  0
    3.9634   -0.3535   -1.2951 H   0  0
    2.6835    0.6364   -2.0376 H   0  0
    2.1468    2.8258    1.0750 H   0  0
    5.4872    1.9050   -0.6151 H   0  0
    4.3098    2.4252   -1.8450 H   0  0
    4.2750    3.5291    0.9590 H   0  0
    5.2769    4.2472   -0.3255 H   0  0
    2.1077    2.6984   -1.9440 H   0  0
    0.9616    3.7005   -1.0212 H   0  0
    2.4805    5.4268   -2.4928 H   0  0
    3.7614    4.2309   -2.8032 H   0  0
    4.1502    5.7560   -1.9723 H   0  0
    1.7860    5.9332   -0.1241 H   0  0
    3.4840    6.1499    0.3628 H   0  0
    2.4544    4.9793    1.2213 H   0  0
    5.8646    1.2878    1.1241 H   0  0
   -0.9179   -1.6758    2.3001 H   0  0
    0.0266   -0.1678    2.3322 H   0  0
    0.7923   -1.6865    1.8081 H   0  0
   -2.4569   -1.3437    2.5334 H   0  0
   -4.2331   -1.2603    2.4618 H   0  0
   -3.2767    0.2347    2.5955 H   0  0
    1.0898    0.7958   -2.3945 H   0  0
   -0.6512    0.7700   -2.0267 H   0  0
    0.2006   -0.7457   -2.4067 H   0  0
   -3.9273   -4.1876    1.8092 H   0  0
   -5.6991   -4.0845    1.6781 H   0  0
   -4.7753   -2.7187    2.3478 H   0  0
   -3.8509   -4.7868   -0.5757 H   0  0
   -4.7677   -3.8432   -1.7740 H   0  0
   -5.6264   -4.7136   -0.4808 H   0  0
   -7.4002    0.8089   -0.3548 H   0  0
  3  2  1  0
  3  4  1  0
 15 20  1  0
 16 17  1  0
 17 18  1  0
 18 19  1  0
 19 20  1  0
 32  2  1  0
 19 21  1  0
  7 10  1  0
 19 22  1  0
  8 12  1  0
 16 23  1  0
 11  9  2  0
 23 24  2  0
  9 10  1  0
 23 25  1  0
 12 11  1  0
  8 26  1  0
 31  1  1  0
  3 27  1  0
  4  1  1  0
  3  7  1  0
  4  5  1  0
 15 11  1  0
 12 28  1  0
 12 13  1  0
  1 29  1  0
 13 14  1  0
  1 30  1  0
 31 32  2  0
 16 14  1  0
 15 16  1  0
  5  6  1  0
  8  6  1  0
  7  8  1  0
 32 33  1  0
 33 34  2  0
 34 35  1  0
 35 31  1  0
  2 36  1  0
  2 37  1  0
  4 38  1  0
  5 39  1  0
  5 40  1  0
  6 41  1  0
  6 42  1  0
  7 43  1  0
  9 44  1  0
 10 45  1  0
 10 46  1  0
 13 47  1  0
 13 48  1  0
 14 49  1  0
 14 50  1  0
 15 51  1  0
 17 52  1  0
 17 53  1  0
 18 54  1  0
 18 55  1  0
 20 56  1  0
 20 57  1  0
 21 58  1  0
 21 59  1  0
 21 60  1  0
 22 61  1  0
 22 62  1  0
 22 63  1  0
 25 64  1  0
 26 65  1  0
 26 66  1  0
 26 67  1  0
 27 68  1  0
 27 69  1  0
 27 70  1  0
 28 71  1  0
 28 72  1  0
 28 73  1  0
 29 74  1  0
 29 75  1  0
 29 76  1  0
 30 77  1  0
 30 78  1  0
 30 79  1  0
 33 80  1  0
M  END
> <Name>
Molecule

> <Clean Energy>
143.804

> <From>
www.bindingDB.org

> <BindingDB Reactant_set_id>
50533722

> <Ligand InChI>
InChI=1S/C31H45NO3/c1-26(2)12-14-31(25(33)34)15-13-29(6)20(21(31)17-26)8-9-23-28(5)16-19-18-32-35-24(19)27(3,4)22(28)10-11-30(23,29)7/h8,18,21-23H,9-17H2,1-7H3,(H,33,34)/t21-,22-,23+,28-,29+,30+,31-/m
0/s1

> <Ligand InChI Key>
KAVKWHJDPYCYQA-VNNAKPRGSA-N

> <BindingDB MonomerID>
50299740

> <BindingDB Ligand Name>
(4aS,6aS,6bR,8aR,13aR,13bR,15bS)-2,2,6a,6b,9,9,13a-heptamethyl-1,2,3,4,4a,5,6,6a,6b,7,8,8a,9,13,13a,13b,14,15b-octadecahydropiceno[2,3-d]isoxazole-4a-carboxylic acid::CHEMBL582862

> <Target Name>
Tyrosine-protein phosphatase non-receptor type 1

> <Target Source Organism According to Curator or DataSource>
Homo sapiens

> <IC50 (nM)>
2600

> <Curation/DataSource>
ChEMBL

> <Article DOI>
10.1016/j.bmcl.2009.10.017

> <BindingDB Entry DOI>
10.7270/Q2BR8S8F

> <PMID>
19846303

> <Authors>
Qiu, WW; Shen, Q; Yang, F; Wang, B; Zou, H; Li, JY; Li, J; Tang, J

> <Institution>
East China Normal University

> <Link to Ligand in BindingDB>
http://www.bindingdb.org/bind/chemsearch/marvin/MolStructure.jsp?monomerid=50299740

> <Link to Ligand-Target Pair in BindingDB>
http://www.bindingdb.org/jsp/dbsearch/PrimarySearch_ki.jsp?energyterm=kJ/mole&tag=pol&polymerid=2622&target=Tyrosine-protein+phosphatase+non-receptor+type+1&column=ki&startPg=0&Increment=50&submit=Sea
rch
http://www.bindingdb.org/jsp/dbsearch/PrimarySearch_ki.jsp?energyterm=kJ/mole&tag=r21&monomerid=50299740&enzyme=Tyrosine-protein+phosphatase+non-receptor+type+1&column=ki&startPg=0&Increment=50&submit
=Search

> <PubChem CID of Ligand>
45482885

> <PubChem SID of Ligand>
104141269

> <ChEMBL ID of Ligand>
CHEMBL582862

> <ZINC ID of Ligand>
ZINC35570622

> <Number of Protein Chains in Target (bigger than 1 implies a multichain complex)>
1

> <BindingDB Target Chain Sequence>
MEMEKEFEQIDKSGSWAAIYQDIRHEASDFPCRVAKLPKNKNRNRYRDVSPFDHSRIKLHQEDNDYINASLIKMEEAQRSYILTQGPLPNTCGHFWEMVWEQKSRGVVMLNRVMEKGSLKCAQYWPQKEEKEMIFEDTNLKLTLISEDIKSYYTVRQLELENLTTQETREILHFHYTTWPDFGVPESPASFLNFLFKVRE
SGSLSPEHGPVVVHCSAGIGRSGTFCLADTCLLLMDKRKDPSSVDIKKVLLEMRKFRMGLIQTADQLRFSYLAVIEGAKFIMGDSSVQDQWKELSHEDLEPPPEHIPPPPRPPKRILEPHNGKCREFFPNHQWVKEETQEDKDCPIKEEKGSPLNAAPYGIESMSQDTEVRSRVVGGSLRGAQAASPAKGEPSLPEKDED
HALSYWKPFLVNMCVATVLTAGAYLCYRFLFNSNT

> <PDB ID(s) of Target Chain>
1BZJ,1G7G,1GFY,1JF7,1KAK,1KAV,1LQF,1NL9,1NNY,1NO6,1NZ7,1OEM,1OEO,1OES,1OET,1OEU,1OEV,1ONY,1ONZ,1PH0,1PXH,1PYN,1Q1M,1Q6J,1Q6M,1Q6N,1Q6P,1Q6S,1Q6T,1QXK,1SUG,1T48,1T49,1T4J,1WAX,1XBO,2AZR,2B07,2BGD,2BGE,
2CM2,2CM3,2CM7,2CM8,2CMA,2CMB,2CMC,2CNE,2CNF,2CNG,2CNH,2CNI,2F6T,2F6V,2F6W,2F6Y,2F6Z,2F70,2F71,2FJN,2H4G,2H4K,2HB1,2HNP,2HNQ,2QBP,2QBQ,2QBR,2QBS,2VEU,2VEV,2VEW,2VEX,2VEY,2ZMM,2ZN7,3A5J,3CWE,3D9C,3EAX,
3EB1,3EU0,3I7Z,3I80,3SME,4BJO,4I8N,4QBW,4Y14,5K9V,5K9W,5KA0,5KA1,5T19,6B90,6NTP,6W30,7KEY,7KLX,7LFO,7MN9,7MNA,8DU7,8G65,8G67,8G68,8G69,8G6A,8SKL

> <UniProt (SwissProt) Recommended Name of Target Chain>
Tyrosine-protein phosphatase non-receptor type 1

> <UniProt (SwissProt) Entry Name of Target Chain>
PTN1_HUMAN

> <UniProt (SwissProt) Primary ID of Target Chain>
P18031

> <UniProt (SwissProt) Secondary ID(s) of Target Chain>
Q5TGD8 Q9BQV9 Q9NQQ4

$$$$
Molecule
  SciTegic10242319433D

 52 55  0  0  0  0            999 V2000
    3.3965  -15.6151    0.0465 C   0  0
    2.0670  -15.5138    0.0808 C   0  0
    1.2365  -16.6804   -0.2256 C   0  0
    1.8156  -17.8357   -0.5464 C   0  0
    3.2753  -17.9468   -0.5972 C   0  0
    4.0303  -16.8892   -0.3092 C   0  0
   -1.1160  -17.7107   -0.2675 C   0  0
   -0.2330  -16.5911   -0.1516 C   0  0
   -0.9017  -15.5289    0.0653 N   0  0
   -2.1979  -15.8428    0.0903 O   0  0
   -2.3232  -17.1939   -0.0896 C   0  0
   -6.0523  -17.7894    0.0818 C   0  0
   -6.1233  -19.2540    0.0216 C   0  0
   -5.0009  -19.9625   -0.0859 C   0  0
   -3.6924  -19.2875   -0.1169 C   0  0
   -3.6288  -17.9455   -0.0776 C   0  0
   -4.8713  -17.1730    0.0509 C   0  0
   -7.3604  -19.9202    0.0576 O   0  0
   -8.4485  -18.9903    0.1599 C   0  0
   -2.5244  -20.0448   -0.2322 O   0  0
   -2.7286  -21.4687   -0.2420 C   0  0
   -1.4115  -22.1814   -0.7159 C   0  0
   -0.2351  -22.1183    0.2254 N   0  0
    0.9282  -22.6713   -0.5012 C   0  0
    2.2023  -22.5816    0.3715 C   0  0
    2.4531  -21.2139    0.7327 O   0  0
    1.3532  -20.7138    1.5001 C   0  0
    0.0896  -20.7459    0.6277 C   0  0
    4.0139  -14.7486    0.2834 H   0  0
    1.5990  -14.5633    0.3368 H   0  0
    1.1987  -18.7053   -0.7728 H   0  0
    3.7420  -18.8932   -0.8702 H   0  0
    5.1169  -16.9697   -0.3376 H   0  0
   -0.8552  -18.7516   -0.4586 H   0  0
   -6.9689  -17.2037    0.1520 H   0  0
   -5.0510  -21.0494   -0.1513 H   0  0
   -4.8270  -16.0863    0.1217 H   0  0
   -9.3919  -19.5355    0.1857 H   0  0
   -8.4387  -18.3226   -0.7017 H   0  0
   -8.3425  -18.4053    1.0735 H   0  0
   -2.9834  -21.8063    0.7626 H   0  0
   -3.5412  -21.7147   -0.9256 H   0  0
   -1.6459  -23.2328   -0.8826 H   0  0
   -1.1074  -21.7228   -1.6568 H   0  0
    0.7345  -23.7154   -0.7472 H   0  0
    1.0811  -22.1036   -1.4190 H   0  0
    2.0633  -23.1743    1.2757 H   0  0
    3.0527  -22.9686   -0.1900 H   0  0
    1.2065  -21.3385    2.3811 H   0  0
    1.5585  -19.6893    1.8106 H   0  0
    0.2571  -20.1429   -0.2648 H   0  0
   -0.7453  -20.3334    1.1941 H   0  0
  1  2  2  0
 14 15  1  0
  3  4  2  0
 15 16  2  0
  8  9  2  0
 16 17  1  0
 17 12  2  0
 13 18  1  0
 16 11  1  0
  4  5  1  0
 18 19  1  0
  8  3  1  0
  2  3  1  0
 15 20  1  0
  7  8  1  0
 20 21  1  0
  9 10  1  0
 21 22  1  0
 11  7  2  0
 22 23  1  0
 23 24  1  0
  5  6  2  0
  6  1  1  0
 12 13  1  0
 10 11  1  0
 13 14  2  0
 23 28  1  0
 24 25  1  0
 25 26  1  0
 26 27  1  0
 27 28  1  0
  1 29  1  0
  2 30  1  0
  4 31  1  0
  5 32  1  0
  6 33  1  0
  7 34  1  0
 12 35  1  0
 14 36  1  0
 17 37  1  0
 19 38  1  0
 19 39  1  0
 19 40  1  0
 21 41  1  0
 21 42  1  0
 22 43  1  0
 22 44  1  0
 24 45  1  0
 24 46  1  0
 25 47  1  0
 25 48  1  0
 27 49  1  0
 27 50  1  0
 28 51  1  0
 28 52  1  0
M  END
> <Name>
Molecule

> <Clean Energy>
21.1123

> <From>
www.bindingDB.org

> <BindingDB Reactant_set_id>
50644712

> <Ligand InChI>
InChI=1S/C22H24N2O4/c1-25-18-7-8-19(21(15-18)27-14-11-24-9-12-26-13-10-24)22-16-20(23-28-22)17-5-3-2-4-6-17/h2-8,15-16H,9-14H2,1H3

> <Ligand InChI Key>
VQVFYTGPIKXWMZ-UHFFFAOYSA-N

> <BindingDB MonomerID>
50346151

> <BindingDB Ligand Name>
4-(2-(5-methoxy-2-(3-phenylisoxazol-5-yl)phenoxy)ethyl)morpholine::CHEMBL1783775

> <Target Name>
Tyrosine-protein phosphatase non-receptor type 1

> <Target Source Organism According to Curator or DataSource>
Homo sapiens

> <IC50 (nM)>
2610

> <Curation/DataSource>
ChEMBL

> <Article DOI>
10.1016/j.bmc.2009.05.033

> <BindingDB Entry DOI>
10.7270/Q2J966QV

> <PMID>
19500993

> <Authors>
Kumar, A; Maurya, RA; Sharma, S; Ahmad, P; Singh, AB; Tamrakar, AK; Srivastava, AK

> <Institution>
Central Drug Research Institute

> <Link to Ligand in BindingDB>
http://www.bindingdb.org/bind/chemsearch/marvin/MolStructure.jsp?monomerid=50346151

> <Link to Ligand-Target Pair in BindingDB>
http://www.bindingdb.org/jsp/dbsearch/PrimarySearch_ki.jsp?energyterm=kJ/mole&tag=pol&polymerid=2622&target=Tyrosine-protein+phosphatase+non-receptor+type+1&column=ki&startPg=0&Increment=50&submit=Sea
rch
http://www.bindingdb.org/jsp/dbsearch/PrimarySearch_ki.jsp?energyterm=kJ/mole&tag=r21&monomerid=50346151&enzyme=Tyrosine-protein+phosphatase+non-receptor+type+1&column=ki&startPg=0&Increment=50&submit
=Search

> <PubChem CID of Ligand>
54580437

> <PubChem SID of Ligand>
131349082

> <ChEMBL ID of Ligand>
CHEMBL1783775

> <ZINC ID of Ligand>
ZINC71295159

> <Number of Protein Chains in Target (bigger than 1 implies a multichain complex)>
1

> <BindingDB Target Chain Sequence>
MEMEKEFEQIDKSGSWAAIYQDIRHEASDFPCRVAKLPKNKNRNRYRDVSPFDHSRIKLHQEDNDYINASLIKMEEAQRSYILTQGPLPNTCGHFWEMVWEQKSRGVVMLNRVMEKGSLKCAQYWPQKEEKEMIFEDTNLKLTLISEDIKSYYTVRQLELENLTTQETREILHFHYTTWPDFGVPESPASFLNFLFKVRE
SGSLSPEHGPVVVHCSAGIGRSGTFCLADTCLLLMDKRKDPSSVDIKKVLLEMRKFRMGLIQTADQLRFSYLAVIEGAKFIMGDSSVQDQWKELSHEDLEPPPEHIPPPPRPPKRILEPHNGKCREFFPNHQWVKEETQEDKDCPIKEEKGSPLNAAPYGIESMSQDTEVRSRVVGGSLRGAQAASPAKGEPSLPEKDED
HALSYWKPFLVNMCVATVLTAGAYLCYRFLFNSNT

> <PDB ID(s) of Target Chain>
1BZJ,1G7G,1GFY,1JF7,1KAK,1KAV,1LQF,1NL9,1NNY,1NO6,1NZ7,1OEM,1OEO,1OES,1OET,1OEU,1OEV,1ONY,1ONZ,1PH0,1PXH,1PYN,1Q1M,1Q6J,1Q6M,1Q6N,1Q6P,1Q6S,1Q6T,1QXK,1SUG,1T48,1T49,1T4J,1WAX,1XBO,2AZR,2B07,2BGD,2BGE,
2CM2,2CM3,2CM7,2CM8,2CMA,2CMB,2CMC,2CNE,2CNF,2CNG,2CNH,2CNI,2F6T,2F6V,2F6W,2F6Y,2F6Z,2F70,2F71,2FJN,2H4G,2H4K,2HB1,2HNP,2HNQ,2QBP,2QBQ,2QBR,2QBS,2VEU,2VEV,2VEW,2VEX,2VEY,2ZMM,2ZN7,3A5J,3CWE,3D9C,3EAX,
3EB1,3EU0,3I7Z,3I80,3SME,4BJO,4I8N,4QBW,4Y14,5K9V,5K9W,5KA0,5KA1,5T19,6B90,6NTP,6W30,7KEY,7KLX,7LFO,7MN9,7MNA,8DU7,8G65,8G67,8G68,8G69,8G6A,8SKL

> <UniProt (SwissProt) Recommended Name of Target Chain>
Tyrosine-protein phosphatase non-receptor type 1

> <UniProt (SwissProt) Entry Name of Target Chain>
PTN1_HUMAN

> <UniProt (SwissProt) Primary ID of Target Chain>
P18031

> <UniProt (SwissProt) Secondary ID(s) of Target Chain>
Q5TGD8 Q9BQV9 Q9NQQ4

$$$$
Molecule
  SciTegic10242319433D

 80 84  0  0  0  0            999 V2000
   20.3107    1.2598    1.4452 C   0  0
   10.8700   -1.6682   -0.4233 C   0  0
   10.8881   -0.3529    0.4327 C   0  0
   12.1824    0.4683    0.1070 C   0  0
   12.0558   -2.5909   -0.0293 C   0  0
   13.3859   -1.7374   -0.2856 C   0  0  2  0  0  0
   14.6760   -2.5803    0.0220 C   0  0
   15.9323   -1.7896   -0.5137 C   0  0
   16.1071   -0.4432    0.2188 C   0  0  1  0  0  0
   16.5388   -0.7399    1.7026 C   0  0
   17.2666    0.4154   -0.4683 C   0  0  2  0  0  0
   16.9775    0.6079   -1.9974 C   0  0
   18.6349   -0.2962   -0.4301 C   0  0
   19.7716    0.6354   -0.9732 C   0  0
   19.9678    1.8160    0.0408 C   0  0  2  0  0  0
   21.1547    2.7244   -0.5047 C   0  0
   20.9490    4.0704    0.0618 C   0  0
   19.7491    4.6773   -0.7872 C   0  0
   18.6226    3.5576   -1.0949 C   0  0
   18.5954    2.6762    0.1247 C   0  0  1  0  0  0
   17.3283    1.8311    0.1736 C   0  0
   16.2380    2.4111    0.6957 C   0  0
   14.8797    1.7247    0.8272 C   0  0
   14.7494    0.3870    0.0420 C   0  0  2  0  0  0
   13.4304   -0.3487    0.5165 C   0  0  1  0  0  0
   13.3960   -0.4683    2.0846 C   0  0
   19.5933    0.4538    2.0475 O   0  0
   21.4636    1.7147    2.0801 O   0  0
   11.8304   -3.1458    1.4130 C   0  0
   12.0785   -3.8237   -0.9493 C   0  0
   20.2206    5.2265   -2.1433 C   0  0
   19.1853    5.8589    0.0468 C   0  0
    9.9322   -2.1959   -0.2498 H   0  0
   10.9522   -1.4099   -1.4791 H   0  0
   10.0090    0.2463    0.1954 H   0  0
   10.8784   -0.6095    1.4920 H   0  0
   12.1655    1.4070    0.6607 H   0  0
   12.2202    0.6772   -0.9622 H   0  0
   13.4093   -1.4937   -1.3478 H   0  0
   14.7683   -2.7313    1.0976 H   0  0
   14.6105   -3.5473   -0.4768 H   0  0
   16.8249   -2.3957   -0.3584 H   0  0
   15.8029   -1.5990   -1.5791 H   0  0
   16.6680    0.2001    2.2389 H   0  0
   17.4794   -1.2909    1.7046 H   0  0
   15.7687   -1.3349    2.1936 H   0  0
   17.7778    1.1949   -2.4479 H   0  0
   16.0289    1.1294   -2.1254 H   0  0
   16.9244   -0.3664   -2.4832 H   0  0
   18.8632   -0.5730    0.5991 H   0  0
   18.5861   -1.1941   -1.0461 H   0  0
   20.6991    0.0700   -1.0643 H   0  0
   19.4891    1.0308   -1.9489 H   0  0
   22.1149    2.3229   -0.1809 H   0  0
   21.1263    2.7663   -1.5935 H   0  0
   20.6822    4.0081    1.1168 H   0  0
   21.8471    4.6777   -0.0512 H   0  0
   17.6506    4.0262   -1.2490 H   0  0
   18.8914    2.9785   -1.9784 H   0  0
   18.6307    3.3065    1.0133 H   0  0
   16.3266    3.4385    1.0491 H   0  0
   14.7047    1.5173    1.8829 H   0  0
   14.1159    2.4100    0.4596 H   0  0
   14.6381    0.6276   -1.0153 H   0  0
   12.4818   -0.9768    2.3908 H   0  0
   13.4223    0.5280    2.5261 H   0  0
   14.2600   -1.0390    2.4251 H   0  0
   22.3019    1.4853    1.4909 H   0  0
   11.8037   -2.3178    2.1214 H   0  0
   12.6452   -3.8209    1.6746 H   0  0
   10.8847   -3.6865    1.4512 H   0  0
   12.2336   -3.5056   -1.9802 H   0  0
   11.1287   -4.3529   -0.8720 H   0  0
   12.8892   -4.4874   -0.6486 H   0  0
   19.3678    5.6308   -2.6885 H   0  0
   20.6742    4.4229   -2.7234 H   0  0
   20.9546    6.0158   -1.9808 H   0  0
   18.3541    6.3179   -0.4882 H   0  0
   19.9691    6.5999    0.2039 H   0  0
   18.8364    5.4896    1.0112 H   0  0
  6  7  1  0
  7  8  1  0
  9  8  1  0
  9 10  1  0
  9 11  1  0
 11 12  1  0
 11 13  1  0
 13 14  1  0
 15 14  1  0
 15  1  1  0
 15 16  1  0
 16 17  1  0
 17 18  1  0
 18 19  1  0
 20 19  1  0
 15 20  1  0
 20 21  1  0
 11 21  1  0
 21 22  2  0
 22 23  1  0
 24 23  1  0
  9 24  1  0
 24 25  1  0
 25  4  1  0
 25  6  1  0
 25 26  1  0
  1 27  2  0
  1 28  1  0
  2  3  1  0
  5 29  1  0
  3  4  1  0
  5 30  1  0
  2  5  1  0
 18 31  1  0
  6  5  1  0
 18 32  1  0
  2 33  1  0
  2 34  1  0
  3 35  1  0
  3 36  1  0
  4 37  1  0
  4 38  1  0
  6 39  1  0
  7 40  1  0
  7 41  1  0
  8 42  1  0
  8 43  1  0
 10 44  1  0
 10 45  1  0
 10 46  1  0
 12 47  1  0
 12 48  1  0
 12 49  1  0
 13 50  1  0
 13 51  1  0
 14 52  1  0
 14 53  1  0
 16 54  1  0
 16 55  1  0
 17 56  1  0
 17 57  1  0
 19 58  1  0
 19 59  1  0
 20 60  1  0
 22 61  1  0
 23 62  1  0
 23 63  1  0
 24 64  1  0
 26 65  1  0
 26 66  1  0
 26 67  1  0
 28 68  1  0
 29 69  1  0
 29 70  1  0
 29 71  1  0
 30 72  1  0
 30 73  1  0
 30 74  1  0
 31 75  1  0
 31 76  1  0
 31 77  1  0
 32 78  1  0
 32 79  1  0
 32 80  1  0
M  END
> <Name>
Molecule

> <Clean Energy>
100.524

> <From>
www.bindingDB.org

> <BindingDB Reactant_set_id>
51186461

> <Ligand InChI>
InChI=1S/C30H48O2/c1-25(2)15-17-30(24(31)32)18-16-28(6)20(21(30)19-25)9-10-23-27(5)13-8-12-26(3,4)22(27)11-14-29(23,28)7/h9,21-23H,8,10-19H2,1-7H3,(H,31,32)/t21-,22-,23+,27-,28+,29+,30-/m0/s1

> <Ligand InChI Key>
MXEMKMNFLXVQBW-CDNBJWEZSA-N

> <BindingDB MonomerID>
50246736

> <BindingDB Ligand Name>
(4aS,6aS,6bR,8aS,12aS,12bR,14bS)-2,2,6a,6b,9,9,12a-heptamethyl-1,2,3,4,4a,5,6,6a,6b,7,8,8a,9,10,11,12,12a,12b,13,14b-icosahydropicene-4a-carboxylic acid::CHEMBL472896

> <Target Name>
Tyrosine-protein phosphatase non-receptor type 1

> <Target Source Organism According to Curator or DataSource>
Homo sapiens

> <IC50 (nM)>
2610

> <Curation/DataSource>
ChEMBL

> <Article DOI>
10.1007/s00044-010-9529-5

> <BindingDB Entry DOI>
10.7270/Q2F76GFZ

> <Authors>
n/a

> <Institution>
n/a

> <Link to Ligand in BindingDB>
http://www.bindingdb.org/bind/chemsearch/marvin/MolStructure.jsp?monomerid=50246736

> <Link to Ligand-Target Pair in BindingDB>
http://www.bindingdb.org/jsp/dbsearch/PrimarySearch_ki.jsp?energyterm=kJ/mole&tag=pol&polymerid=2622&target=Tyrosine-protein+phosphatase+non-receptor+type+1&column=ki&startPg=0&Increment=50&submit=Sea
rch
http://www.bindingdb.org/jsp/dbsearch/PrimarySearch_ki.jsp?energyterm=kJ/mole&tag=r21&monomerid=50246736&enzyme=Tyrosine-protein+phosphatase+non-receptor+type+1&column=ki&startPg=0&Increment=50&submit
=Search

> <PubChem CID of Ligand>
14208454

> <PubChem SID of Ligand>
104102103

> <ChEMBL ID of Ligand>
CHEMBL472896

> <ZINC ID of Ligand>
ZINC34247937

> <Number of Protein Chains in Target (bigger than 1 implies a multichain complex)>
1

> <BindingDB Target Chain Sequence>
MEMEKEFEQIDKSGSWAAIYQDIRHEASDFPCRVAKLPKNKNRNRYRDVSPFDHSRIKLHQEDNDYINASLIKMEEAQRSYILTQGPLPNTCGHFWEMVWEQKSRGVVMLNRVMEKGSLKCAQYWPQKEEKEMIFEDTNLKLTLISEDIKSYYTVRQLELENLTTQETREILHFHYTTWPDFGVPESPASFLNFLFKVRE
SGSLSPEHGPVVVHCSAGIGRSGTFCLADTCLLLMDKRKDPSSVDIKKVLLEMRKFRMGLIQTADQLRFSYLAVIEGAKFIMGDSSVQDQWKELSHEDLEPPPEHIPPPPRPPKRILEPHNGKCREFFPNHQWVKEETQEDKDCPIKEEKGSPLNAAPYGIESMSQDTEVRSRVVGGSLRGAQAASPAKGEPSLPEKDED
HALSYWKPFLVNMCVATVLTAGAYLCYRFLFNSNT

> <PDB ID(s) of Target Chain>
1BZJ,1G7G,1GFY,1JF7,1KAK,1KAV,1LQF,1NL9,1NNY,1NO6,1NZ7,1OEM,1OEO,1OES,1OET,1OEU,1OEV,1ONY,1ONZ,1PH0,1PXH,1PYN,1Q1M,1Q6J,1Q6M,1Q6N,1Q6P,1Q6S,1Q6T,1QXK,1SUG,1T48,1T49,1T4J,1WAX,1XBO,2AZR,2B07,2BGD,2BGE,
2CM2,2CM3,2CM7,2CM8,2CMA,2CMB,2CMC,2CNE,2CNF,2CNG,2CNH,2CNI,2F6T,2F6V,2F6W,2F6Y,2F6Z,2F70,2F71,2FJN,2H4G,2H4K,2HB1,2HNP,2HNQ,2QBP,2QBQ,2QBR,2QBS,2VEU,2VEV,2VEW,2VEX,2VEY,2ZMM,2ZN7,3A5J,3CWE,3D9C,3EAX,
3EB1,3EU0,3I7Z,3I80,3SME,4BJO,4I8N,4QBW,4Y14,5K9V,5K9W,5KA0,5KA1,5T19,6B90,6NTP,6W30,7KEY,7KLX,7LFO,7MN9,7MNA,8DU7,8G65,8G67,8G68,8G69,8G6A,8SKL

> <UniProt (SwissProt) Recommended Name of Target Chain>
Tyrosine-protein phosphatase non-receptor type 1

> <UniProt (SwissProt) Entry Name of Target Chain>
PTN1_HUMAN

> <UniProt (SwissProt) Primary ID of Target Chain>
P18031

> <UniProt (SwissProt) Secondary ID(s) of Target Chain>
Q5TGD8 Q9BQV9 Q9NQQ4

$$$$
Molecule
  SciTegic10242319433D

 95100  0  0  0  0            999 V2000
   -4.6678  -10.5711   -0.4922 C   0  0
   -4.7339   -9.4939   -1.0613 O   0  0
   -5.9017  -11.3318   -0.2261 C   0  0
   -7.0819  -10.7675   -0.5542 C   0  0
   -8.3265  -11.4976   -0.3209 C   0  0
   -8.3090  -12.7195    0.2035 C   0  0
   -7.0182  -13.3370    0.5610 C   0  0
   -5.8820  -12.6713    0.3575 C   0  0
   -3.4243  -11.1233   -0.0829 O   0  0
    8.3321   -6.1354   -0.2199 C   0  0
    9.1200   -4.8629   -0.0121 C   0  0  2  0  0  0
    8.1763   -3.9347   -0.5832 O   0  0
    6.8818   -4.4208   -0.3624 C   0  0
    6.9711   -5.7514    0.2896 C   0  0  1  0  0  0
    5.8460   -3.8775   -0.7587 O   0  0
   -2.2533   -8.8555    0.1971 C   0  0
   -2.2362  -10.3189   -0.4171 C   0  0  1  0  0  0
   -1.0375  -11.0983    0.1646 C   0  0
   -0.9356   -8.0585   -0.2462 C   0  0
    0.2822   -8.7352    0.4070 C   0  0  1  0  0  0
    0.2923  -10.2741   -0.1336 C   0  0  1  0  0  0
    1.4944  -11.0671    0.4527 C   0  0
    2.8291  -10.4195    0.0150 C   0  0
    1.7439   -8.1094   -0.0416 C   0  0  2  0  0  0
    2.9596   -8.9847    0.5453 C   0  0  2  0  0  0
    3.3995   -6.0462   -0.0983 C   0  0
    1.9566   -6.5838    0.3994 C   0  0
    4.5062   -6.9636    0.5253 C   0  0  1  0  0  0
    4.2731   -8.3913    0.0715 C   0  0  1  0  0  0
    5.4510   -9.1807    0.6728 C   0  0
    6.5724   -8.1370    0.7290 C   0  0
    5.9876   -6.9141    0.0087 C   0  0  2  0  0  0
    0.0392   -8.5188    1.9494 C   0  0
    3.0936   -9.0454    2.1168 C   0  0
   10.4457   -5.0531   -0.7413 C   0  0
   11.6464   -4.6898   -0.2743 C   0  0
   12.8634   -5.0001   -1.0999 C   0  0
   11.8195   -3.9948    1.0502 C   0  0
   -0.9461  -12.4826   -0.5074 C   0  0
   -1.2955  -11.3755    1.6762 C   0  0
   -9.5059  -13.4322    0.4240 O   0  0
  -10.6552  -12.6662    0.0161 C   0  0
    7.0608   -5.5346    1.7012 O   0  0
   -7.1076   -9.7697   -0.9921 H   0  0
   -9.2792  -11.0355   -0.5797 H   0  0
   -6.9937  -14.3380    0.9918 H   0  0
   -4.9308  -13.1294    0.6283 H   0  0
    8.2963   -6.4105   -1.2740 H   0  0
    8.7522   -6.9592    0.3571 H   0  0
    9.2771   -4.6643    1.0481 H   0  0
   -3.1344   -8.3238   -0.1623 H   0  0
   -2.2864   -8.9211    1.2846 H   0  0
   -2.1351  -10.2555   -1.5006 H   0  0
   -0.8351   -8.0877   -1.3312 H   0  0
   -1.0029   -7.0223    0.0852 H   0  0
    0.4198  -10.2396   -1.2156 H   0  0
    1.4322  -11.0619    1.5409 H   0  0
    1.4579  -12.0947    0.0910 H   0  0
    3.6554  -11.0162    0.4013 H   0  0
    2.8725  -10.3997   -1.0740 H   0  0
    1.8016   -8.1505   -1.1293 H   0  0
    3.5438   -5.0176    0.2323 H   0  0
    3.4541   -6.0899   -1.1860 H   0  0
    1.1727   -5.9697   -0.0440 H   0  0
    1.9030   -6.5137    1.4858 H   0  0
    4.4814   -6.9024    1.6133 H   0  0
    4.3217   -8.4390   -1.0164 H   0  0
    5.2078   -9.5483    1.6698 H   0  0
    5.7277  -10.0189    0.0334 H   0  0
    6.8223   -7.8939    1.7617 H   0  0
    7.4627   -8.4988    0.2146 H   0  0
    5.9860   -7.1131   -1.0630 H   0  0
    0.8572   -8.9673    2.5130 H   0  0
   -0.9010   -8.9881    2.2390 H   0  0
   -0.0068   -7.4511    2.1642 H   0  0
    3.1876   -8.0344    2.5133 H   0  0
    3.9780   -9.6236    2.3845 H   0  0
    2.2081   -9.5200    2.5395 H   0  0
   10.4129   -5.5238   -1.7239 H   0  0
   13.7541   -4.6420   -0.5838 H   0  0
   12.7818   -4.5061   -2.0681 H   0  0
   12.9380   -6.0775   -1.2473 H   0  0
   12.8776   -3.7973    1.2218 H   0  0
   11.4351   -4.6306    1.8477 H   0  0
   11.2714   -3.0527    1.0411 H   0  0
   -0.0994  -13.0318   -0.0958 H   0  0
   -0.8096  -12.3573   -1.5816 H   0  0
   -1.8647  -13.0390   -0.3208 H   0  0
   -0.4527  -11.9259    2.0942 H   0  0
   -2.2053  -11.9654    1.7877 H   0  0
   -1.4093  -10.4293    2.2053 H   0  0
  -11.5611  -13.2439    0.1993 H   0  0
  -10.5804  -12.4360   -1.0467 H   0  0
  -10.6950  -11.7382    0.5866 H   0  0
    7.9161   -4.9640    1.9145 H   0  0
  3  4  2  0
  4  5  1  0
  5  6  2  0
  6  7  1  0
  7  8  2  0
  8  3  1  0
  1  9  1  0
 11 10  1  0
 11 12  1  0
 12 13  1  0
 14 13  1  0
 14 10  1  0
 13 15  2  0
 17 16  1  0
 16 19  1  0
 17 18  1  0
 21 18  1  0
 20 19  1  0
 20 21  1  0
 20 24  1  0
 21 22  1  0
 22 23  1  0
 25 23  1  0
 24 25  1  0
 24 27  1  0
 25 29  1  0
 28 26  1  0
 26 27  1  0
 29 28  1  0
 29 30  1  0
 30 31  1  0
 32 31  1  0
 28 32  1  0
 20 33  1  0
 25 34  1  0
 32 14  1  0
 11 35  1  0
 35 36  2  0
 36 37  1  0
 36 38  1  0
 18 39  1  0
 18 40  1  0
 17  9  1  0
  6 41  1  0
  1  2  2  0
 41 42  1  0
  1  3  1  0
 14 43  1  0
  4 44  1  0
  5 45  1  0
  7 46  1  0
  8 47  1  0
 10 48  1  0
 10 49  1  0
 11 50  1  0
 16 51  1  0
 16 52  1  0
 17 53  1  0
 19 54  1  0
 19 55  1  0
 21 56  1  0
 22 57  1  0
 22 58  1  0
 23 59  1  0
 23 60  1  0
 24 61  1  0
 26 62  1  0
 26 63  1  0
 27 64  1  0
 27 65  1  0
 28 66  1  0
 29 67  1  0
 30 68  1  0
 30 69  1  0
 31 70  1  0
 31 71  1  0
 32 72  1  0
 33 73  1  0
 33 74  1  0
 33 75  1  0
 34 76  1  0
 34 77  1  0
 34 78  1  0
 35 79  1  0
 37 80  1  0
 37 81  1  0
 37 82  1  0
 38 83  1  0
 38 84  1  0
 38 85  1  0
 39 86  1  0
 39 87  1  0
 39 88  1  0
 40 89  1  0
 40 90  1  0
 40 91  1  0
 42 92  1  0
 42 93  1  0
 42 94  1  0
 43 95  1  0
M  END
> <Name>
Molecule

> <Clean Energy>
97.7707

> <From>
www.bindingDB.org

> <BindingDB Reactant_set_id>
50582958

> <Ligand InChI>
InChI=1S/C37H52O6/c1-22(2)20-25-21-37(40,33(39)42-25)28-14-13-27-26(28)12-15-30-35(27,5)18-16-29-34(3,4)31(17-19-36(29,30)6)43-32(38)23-8-10-24(41-7)11-9-23/h8-11,20,25-31,40H,12-19,21H2,1-7H3/t25-,26
+,27-,28+,29+,30+,31+,35+,36+,37+/m1/s1

> <Ligand InChI Key>
QIQHLKXFJJLZSA-FDZYGETKSA-N

> <BindingDB MonomerID>
50320940

> <BindingDB Ligand Name>
(3S,20S,23S)-3-(4'-Methoxybenzoyloxy)-20,23-dihydroxydammar-24-en-21-oic acid-21,23-lactone::CHEMBL1164944

> <Target Name>
Tyrosine-protein phosphatase non-receptor type 1

> <Target Source Organism According to Curator or DataSource>
Homo sapiens

> <IC50 (nM)>
2610

> <Curation/DataSource>
ChEMBL

> <Article DOI>
10.1016/j.bmc.2010.04.073

> <BindingDB Entry DOI>
10.7270/Q21C1X25

> <PMID>
20472439

> <Authors>
Xu, JQ; Shen, Q; Li, J; Hu, LH

> <Institution>
Chinese Academy of Sciences

> <Link to Ligand in BindingDB>
http://www.bindingdb.org/bind/chemsearch/marvin/MolStructure.jsp?monomerid=50320940

> <Link to Ligand-Target Pair in BindingDB>
http://www.bindingdb.org/jsp/dbsearch/PrimarySearch_ki.jsp?energyterm=kJ/mole&tag=pol&polymerid=2622&target=Tyrosine-protein+phosphatase+non-receptor+type+1&column=ki&startPg=0&Increment=50&submit=Sea
rch
http://www.bindingdb.org/jsp/dbsearch/PrimarySearch_ki.jsp?energyterm=kJ/mole&tag=r21&monomerid=50320940&enzyme=Tyrosine-protein+phosphatase+non-receptor+type+1&column=ki&startPg=0&Increment=50&submit
=Search

> <PubChem CID of Ligand>
46906776

> <PubChem SID of Ligand>
104142469

> <ChEMBL ID of Ligand>
CHEMBL1164944

> <ZINC ID of Ligand>
ZINC49808419

> <Number of Protein Chains in Target (bigger than 1 implies a multichain complex)>
1

> <BindingDB Target Chain Sequence>
MEMEKEFEQIDKSGSWAAIYQDIRHEASDFPCRVAKLPKNKNRNRYRDVSPFDHSRIKLHQEDNDYINASLIKMEEAQRSYILTQGPLPNTCGHFWEMVWEQKSRGVVMLNRVMEKGSLKCAQYWPQKEEKEMIFEDTNLKLTLISEDIKSYYTVRQLELENLTTQETREILHFHYTTWPDFGVPESPASFLNFLFKVRE
SGSLSPEHGPVVVHCSAGIGRSGTFCLADTCLLLMDKRKDPSSVDIKKVLLEMRKFRMGLIQTADQLRFSYLAVIEGAKFIMGDSSVQDQWKELSHEDLEPPPEHIPPPPRPPKRILEPHNGKCREFFPNHQWVKEETQEDKDCPIKEEKGSPLNAAPYGIESMSQDTEVRSRVVGGSLRGAQAASPAKGEPSLPEKDED
HALSYWKPFLVNMCVATVLTAGAYLCYRFLFNSNT

> <PDB ID(s) of Target Chain>
1BZJ,1G7G,1GFY,1JF7,1KAK,1KAV,1LQF,1NL9,1NNY,1NO6,1NZ7,1OEM,1OEO,1OES,1OET,1OEU,1OEV,1ONY,1ONZ,1PH0,1PXH,1PYN,1Q1M,1Q6J,1Q6M,1Q6N,1Q6P,1Q6S,1Q6T,1QXK,1SUG,1T48,1T49,1T4J,1WAX,1XBO,2AZR,2B07,2BGD,2BGE,
2CM2,2CM3,2CM7,2CM8,2CMA,2CMB,2CMC,2CNE,2CNF,2CNG,2CNH,2CNI,2F6T,2F6V,2F6W,2F6Y,2F6Z,2F70,2F71,2FJN,2H4G,2H4K,2HB1,2HNP,2HNQ,2QBP,2QBQ,2QBR,2QBS,2VEU,2VEV,2VEW,2VEX,2VEY,2ZMM,2ZN7,3A5J,3CWE,3D9C,3EAX,
3EB1,3EU0,3I7Z,3I80,3SME,4BJO,4I8N,4QBW,4Y14,5K9V,5K9W,5KA0,5KA1,5T19,6B90,6NTP,6W30,7KEY,7KLX,7LFO,7MN9,7MNA,8DU7,8G65,8G67,8G68,8G69,8G6A,8SKL

> <UniProt (SwissProt) Recommended Name of Target Chain>
Tyrosine-protein phosphatase non-receptor type 1

> <UniProt (SwissProt) Entry Name of Target Chain>
PTN1_HUMAN

> <UniProt (SwissProt) Primary ID of Target Chain>
P18031

> <UniProt (SwissProt) Secondary ID(s) of Target Chain>
Q5TGD8 Q9BQV9 Q9NQQ4

$$$$
Molecule
  SciTegic10242319433D

 59 63  0  0  0  0            999 V2000
   19.8561  -27.0580    1.3613 C   0  0
   19.8815  -26.1969    0.0823 C   0  0
   19.8185  -27.2616   -1.0286 C   0  0
   13.9294  -23.5820    0.1204 C   0  0
   13.8638  -24.9061    0.1342 C   0  0
   15.0513  -25.6727    0.1072 C   0  0
   15.1876  -22.7868    0.0278 C   0  0
   16.3285  -23.5683   -0.0942 C   0  0
   16.2211  -25.0608    0.0178 C   0  0
   17.4340  -25.8825    0.0829 C   0  0
   17.7157  -23.0982   -0.2997 C   0  0
   18.7700  -23.9071   -0.2143 C   0  0
   18.6412  -25.3265    0.0168 C   0  0
   20.0941  -23.3256   -0.3604 C   0  0
   21.2767  -24.1280   -0.2114 C   0  0
   21.2124  -25.4488   -0.0138 C   0  0
   22.4640  -26.2087    0.1068 C   0  0
   23.6420  -25.5889    0.0308 C   0  0
   23.7016  -24.1494   -0.1568 C   0  0
   22.5802  -23.4510   -0.2733 C   0  0
   20.2290  -22.1092   -0.5197 O   0  0
   22.6506  -22.0683   -0.4353 O   0  0
   24.8198  -26.3154    0.1321 O   0  0
   12.6276  -25.5408    0.2107 O   0  0
   15.0007  -21.0902    0.0602 C   0  0
   15.9678  -20.1766    0.4146 C   0  0
   15.6994  -18.7303    0.4052 C   0  0
   14.5213  -18.2217    0.1256 C   0  0
   13.4408  -19.0792   -0.1789 C   0  0
   13.5879  -20.4028   -0.2339 C   0  0
   17.9723  -21.8576   -0.6611 O   0  0
   17.2450  -20.5025    0.8337 O   0  0
   18.0654  -19.3254    1.0860 C   0  0
   12.3062  -21.1265   -0.5753 C   0  0
   14.3409  -16.8429    0.1336 O   0  0
   14.9645  -27.5681    0.2508 Br  0  0
   11.8881  -18.3839   -0.4736 Cl  0  0
   19.8968  -26.4101    2.2369 H   0  0
   20.7156  -27.7283    1.3657 H   0  0
   18.9379  -27.6449    1.3866 H   0  0
   19.8300  -26.7724   -2.0026 H   0  0
   18.9015  -27.8418   -0.9249 H   0  0
   20.6792  -27.9253   -0.9458 H   0  0
   12.9905  -23.0316    0.1816 H   0  0
   17.3455  -26.9639    0.1870 H   0  0
   22.4293  -27.2873    0.2596 H   0  0
   24.6664  -23.6443   -0.2016 H   0  0
   23.1367  -21.6427    0.3924 H   0  0
   24.8517  -26.8036    1.0611 H   0  0
   12.1404  -25.2538    1.0955 H   0  0
   16.5166  -18.0488    0.6415 H   0  0
   18.6236  -21.4173    0.0349 H   0  0
   19.0577  -19.6367    1.4123 H   0  0
   17.6015  -18.7185    1.8636 H   0  0
   18.1516  -18.7391    0.1711 H   0  0
   12.4914  -22.2002   -0.6049 H   0  0
   11.9485  -20.7931   -1.5495 H   0  0
   11.5528  -20.9090    0.1818 H   0  0
   14.5597  -16.4663    1.0891 H   0  0
  2  1  1  0
  3  2  1  0
  4  5  2  0
  5  6  1  0
  6  9  2  0
  8  7  2  0
  7  4  1  0
  8  9  1  0
  9 10  1  0
 10 13  2  0
 12 11  2  0
 11  8  1  0
 12 13  1  0
 13  2  1  0
  2 16  1  0
 15 14  1  0
 14 12  1  0
 15 16  2  0
 16 17  1  0
 17 18  2  0
 18 19  1  0
 19 20  2  0
 20 15  1  0
 14 21  2  0
 20 22  1  0
 18 23  1  0
  5 24  1  0
  7 25  1  0
 25 26  2  0
 26 27  1  0
 27 28  2  0
 28 29  1  0
 29 30  2  0
 30 25  1  0
 11 31  1  0
 26 32  1  0
 32 33  1  0
 30 34  1  0
 28 35  1  0
  6 36  1  0
 29 37  1  0
  1 38  1  0
  1 39  1  0
  1 40  1  0
  3 41  1  0
  3 42  1  0
  3 43  1  0
  4 44  1  0
 10 45  1  0
 17 46  1  0
 19 47  1  0
 22 48  1  0
 23 49  1  0
 24 50  1  0
 27 51  1  0
 31 52  1  0
 33 53  1  0
 33 54  1  0
 33 55  1  0
 34 56  1  0
 34 57  1  0
 34 58  1  0
 35 59  1  0
M  END
> <Name>
Molecule

> <Clean Energy>
61.4151

> <From>
www.bindingDB.org

> <BindingDB Reactant_set_id>
51337995

> <Ligand InChI>
InChI=1S/C28H22BrClO7/c1-10-20(19(37-4)9-18(34)25(10)30)12-8-17(33)24(29)13-7-15-23(26(35)21(12)13)27(36)22-14(28(15,2)3)5-11(31)6-16(22)32/h5-9,31-35H,1-4H3

> <Ligand InChI Key>
IJROYSZHAIBSKL-UHFFFAOYSA-N

> <BindingDB MonomerID>
50522758

> <BindingDB Ligand Name>
CHEMBL4473832

> <Target Name>
Tyrosine-protein phosphatase non-receptor type 1

> <Target Source Organism According to Curator or DataSource>
Homo sapiens

> <IC50 (nM)>
2620

> <Curation/DataSource>
ChEMBL

> <Article DOI>
10.1021/acs.jnatprod.9b00417

> <BindingDB Entry DOI>
10.7270/Q2280C67

> <PMID>
32298122

> <Authors>
Huo, C; Zheng, Z; Xu, Y; Ding, Y; Zheng, H; Mu, Y; Niu, Y; Gao, J; Lu, X

> <Institution>
Hebei Medical University

> <Link to Ligand in BindingDB>
http://www.bindingdb.org/bind/chemsearch/marvin/MolStructure.jsp?monomerid=50522758

> <Link to Ligand-Target Pair in BindingDB>
http://www.bindingdb.org/jsp/dbsearch/PrimarySearch_ki.jsp?energyterm=kJ/mole&tag=pol&polymerid=2622&target=Tyrosine-protein+phosphatase+non-receptor+type+1&column=ki&startPg=0&Increment=50&submit=Sea
rch
http://www.bindingdb.org/jsp/dbsearch/PrimarySearch_ki.jsp?energyterm=kJ/mole&tag=r21&monomerid=50522758&enzyme=Tyrosine-protein+phosphatase+non-receptor+type+1&column=ki&startPg=0&Increment=50&submit
=Search

> <PubChem CID of Ligand>
155536515

> <PubChem SID of Ligand>
440731340

> <Number of Protein Chains in Target (bigger than 1 implies a multichain complex)>
1

> <BindingDB Target Chain Sequence>
MEMEKEFEQIDKSGSWAAIYQDIRHEASDFPCRVAKLPKNKNRNRYRDVSPFDHSRIKLHQEDNDYINASLIKMEEAQRSYILTQGPLPNTCGHFWEMVWEQKSRGVVMLNRVMEKGSLKCAQYWPQKEEKEMIFEDTNLKLTLISEDIKSYYTVRQLELENLTTQETREILHFHYTTWPDFGVPESPASFLNFLFKVRE
SGSLSPEHGPVVVHCSAGIGRSGTFCLADTCLLLMDKRKDPSSVDIKKVLLEMRKFRMGLIQTADQLRFSYLAVIEGAKFIMGDSSVQDQWKELSHEDLEPPPEHIPPPPRPPKRILEPHNGKCREFFPNHQWVKEETQEDKDCPIKEEKGSPLNAAPYGIESMSQDTEVRSRVVGGSLRGAQAASPAKGEPSLPEKDED
HALSYWKPFLVNMCVATVLTAGAYLCYRFLFNSNT

> <PDB ID(s) of Target Chain>
1BZJ,1G7G,1GFY,1JF7,1KAK,1KAV,1LQF,1NL9,1NNY,1NO6,1NZ7,1OEM,1OEO,1OES,1OET,1OEU,1OEV,1ONY,1ONZ,1PH0,1PXH,1PYN,1Q1M,1Q6J,1Q6M,1Q6N,1Q6P,1Q6S,1Q6T,1QXK,1SUG,1T48,1T49,1T4J,1WAX,1XBO,2AZR,2B07,2BGD,2BGE,
2CM2,2CM3,2CM7,2CM8,2CMA,2CMB,2CMC,2CNE,2CNF,2CNG,2CNH,2CNI,2F6T,2F6V,2F6W,2F6Y,2F6Z,2F70,2F71,2FJN,2H4G,2H4K,2HB1,2HNP,2HNQ,2QBP,2QBQ,2QBR,2QBS,2VEU,2VEV,2VEW,2VEX,2VEY,2ZMM,2ZN7,3A5J,3CWE,3D9C,3EAX,
3EB1,3EU0,3I7Z,3I80,3SME,4BJO,4I8N,4QBW,4Y14,5K9V,5K9W,5KA0,5KA1,5T19,6B90,6NTP,6W30,7KEY,7KLX,7LFO,7MN9,7MNA,8DU7,8G65,8G67,8G68,8G69,8G6A,8SKL

> <UniProt (SwissProt) Recommended Name of Target Chain>
Tyrosine-protein phosphatase non-receptor type 1

> <UniProt (SwissProt) Entry Name of Target Chain>
PTN1_HUMAN

> <UniProt (SwissProt) Primary ID of Target Chain>
P18031

> <UniProt (SwissProt) Secondary ID(s) of Target Chain>
Q5TGD8 Q9BQV9 Q9NQQ4

$$$$
Molecule
  SciTegic10242319433D

 84 89  0  0  0  0            999 V2000
   -0.8044    1.0359    0.0563 C   0  0
   -2.2065    1.0373    0.0239 C   0  0
   -2.9317   -0.1544   -0.0296 C   0  0
   -2.2001   -1.3440   -0.0458 C   0  0
   -0.8015   -1.3474   -0.0130 C   0  0
   -0.0777   -0.1521    0.0352 C   0  0
    1.4923   -0.1566    0.0350 C   0  0
    2.2146   -1.3454   -0.0131 C   0  0
    3.6156   -1.3440   -0.0462 C   0  0
    4.3462   -0.1548   -0.0300 C   0  0
    3.6202    1.0372    0.0238 C   0  0
    2.2205    1.0379    0.0562 C   0  0
   -4.4410   -0.2038   -0.1134 N   0  0
   -5.2863    0.8748   -0.0878 C   0  0
   -6.8507    0.7354   -0.3038 C   0  0
   -4.8260    2.0149    0.0306 O   0  0
    5.8555   -0.2039   -0.1138 N   0  0
    6.7008    0.8748   -0.0880 C   0  0
    8.2650    0.7353   -0.3039 C   0  0
    6.2405    2.0148    0.0307 O   0  0
   -7.6181    1.9386    0.2746 C   0  0
   -9.1301    1.9144   -0.1363 C   0  0
   -9.8040    0.6104   -0.0363 N   0  0
   -9.0048   -0.6421   -0.1298 C   0  0
   -7.4856   -0.5290    0.2900 C   0  0
  -11.2984    0.6509    0.0153 C   0  0
  -12.2814   -0.5317    0.0214 C   0  0
  -11.8170    1.7746    0.0330 O   0  0
  -13.6434   -0.2343    0.0397 C   0  0
  -14.6010   -1.2444    0.0415 C   0  0
  -14.2061   -2.5760    0.0250 C   0  0
  -12.8522   -2.8869    0.0072 C   0  0
  -11.9009   -1.8716    0.0051 C   0  0
    8.8996   -0.5293    0.2899 C   0  0
   10.4188   -0.6423   -0.1297 C   0  0
   11.2181    0.6101   -0.0359 N   0  0
   10.5444    1.9141   -0.1359 C   0  0
    9.0323    1.9383    0.2748 C   0  0
   12.7124    0.6504    0.0162 C   0  0
   13.2310    1.7741    0.0341 O   0  0
   13.6954   -0.5321    0.0215 C   0  0
   13.3148   -1.8720    0.0044 C   0  0
   14.2661   -2.8874    0.0059 C   0  0
   15.6201   -2.5765    0.0240 C   0  0
   16.0149   -1.2449    0.0413 C   0  0
   15.0574   -0.2347    0.0401 C   0  0
   -0.2716    1.9859    0.0989 H   0  0
   -2.7405    1.9873    0.0409 H   0  0
   -2.7326   -2.2942   -0.0851 H   0  0
   -0.2674   -2.2975   -0.0251 H   0  0
    1.6805   -2.2955   -0.0253 H   0  0
    4.1476   -2.2945   -0.0856 H   0  0
    4.1547    1.9871    0.0408 H   0  0
    1.6876    1.9878    0.0989 H   0  0
   -4.8908   -1.1708   -0.2008 H   0  0
   -7.0319    0.7182   -1.3785 H   0  0
    6.3053   -1.1708   -0.2014 H   0  0
    8.4463    0.7183   -1.3786 H   0  0
   -7.5473    1.9127    1.3620 H   0  0
   -7.1658    2.8578   -0.0977 H   0  0
   -9.6619    2.6150    0.5075 H   0  0
   -9.1996    2.2472   -1.1719 H   0  0
   -9.4740   -1.3855    0.5147 H   0  0
   -9.0400   -0.9832   -1.1644 H   0  0
   -6.9478   -1.4042   -0.0746 H   0  0
   -7.4172   -0.4868    1.3771 H   0  0
  -13.9639    0.8074    0.0529 H   0  0
  -15.6609   -0.9904    0.0558 H   0  0
  -14.9524   -3.3705    0.0260 H   0  0
  -12.5342   -3.9294   -0.0051 H   0  0
  -10.8417   -2.1286   -0.0095 H   0  0
    8.8311   -0.4872    1.3769 H   0  0
    8.3619   -1.4044   -0.0750 H   0  0
   10.8879   -1.3859    0.5147 H   0  0
   10.4542   -0.9833   -1.1644 H   0  0
   11.0761    2.6146    0.5081 H   0  0
   10.6141    2.2471   -1.1714 H   0  0
    8.5801    2.8576   -0.0974 H   0  0
    8.9614    1.9123    1.3622 H   0  0
   12.2556   -2.1290   -0.0104 H   0  0
   13.9482   -3.9299   -0.0071 H   0  0
   16.3663   -3.3710    0.0245 H   0  0
   17.0748   -0.9909    0.0558 H   0  0
   15.3779    0.8070    0.0540 H   0  0
  1  2  4  0
  2  3  4  0
  3  4  4  0
  4  5  4  0
  5  6  4  0
  1  6  4  0
  6  7  1  0
  7  8  4  0
  7 12  4  0
  8  9  4  0
  9 10  4  0
 10 11  4  0
 11 12  4  0
  3 13  1  0
 13 14  1  0
 14 15  1  0
 14 16  2  0
 10 17  1  0
 17 18  1  0
 18 19  1  0
 18 20  2  0
 15 21  1  0
 15 25  1  0
 21 22  1  0
 22 23  1  0
 23 24  1  0
 24 25  1  0
 23 26  1  0
 26 27  1  0
 26 28  2  0
 27 29  4  0
 27 33  4  0
 29 30  4  0
 30 31  4  0
 31 32  4  0
 32 33  4  0
 19 34  1  0
 19 38  1  0
 34 35  1  0
 35 36  1  0
 36 37  1  0
 37 38  1  0
 36 39  1  0
 39 40  2  0
 39 41  1  0
 41 42  4  0
 41 46  4  0
 42 43  4  0
 43 44  4  0
 44 45  4  0
 45 46  4  0
  1 47  1  0
  2 48  1  0
  4 49  1  0
  5 50  1  0
  8 51  1  0
  9 52  1  0
 11 53  1  0
 12 54  1  0
 13 55  1  0
 15 56  1  0
 17 57  1  0
 19 58  1  0
 21 59  1  0
 21 60  1  0
 22 61  1  0
 22 62  1  0
 24 63  1  0
 24 64  1  0
 25 65  1  0
 25 66  1  0
 29 67  1  0
 30 68  1  0
 31 69  1  0
 32 70  1  0
 33 71  1  0
 34 72  1  0
 34 73  1  0
 35 74  1  0
 35 75  1  0
 37 76  1  0
 37 77  1  0
 38 78  1  0
 38 79  1  0
 42 80  1  0
 43 81  1  0
 44 82  1  0
 45 83  1  0
 46 84  1  0
M  END
> <Name>
Molecule

> <Clean Energy>
42.2786

> <From>
www.bindingDB.org

> <BindingDB Reactant_set_id>
253444

> <Ligand InChI>
InChI=1S/C38H38N4O4/c43-35(29-19-23-41(24-20-29)37(45)31-7-3-1-4-8-31)39-33-15-11-27(12-16-33)28-13-17-34(18-14-28)40-36(44)30-21-25-42(26-22-30)38(46)32-9-5-2-6-10-32/h1-18,29-30H,19-26H2,(H,39,43)(H
,40,44)

> <Ligand InChI Key>
QRBHPRNSIBXUOF-UHFFFAOYSA-N

> <BindingDB MonomerID>
124240

> <BindingDB Ligand Name>
N,N&#39;-(biphenyl-4,4&#39;-diyl)bis(1-benzoylpiperidine-4-carboxamide) (14)

> <Target Name>
Tyrosine-protein phosphatase non-receptor type 1

> <Target Source Organism According to Curator or DataSource>
Homo sapiens

> <IC50 (nM)>
2650

> <Curation/DataSource>
Curated from the literature by BindingDB

> <Article DOI>
10.1016/j.bmcl.2014.03.015

> <BindingDB Entry DOI>
10.7270/Q2PC3122

> <PMID>
24684845

> <PubChem AID>
aid1800516

> <Authors>
Wang, WL; Huang, C; Gao, LX; Tang, CL; Wang, JQ; Wu, MC; Sheng, L; Chen, HJ; Nan, FJ; Li, JY; Li, J; Feng, B

> <Institution>
Jiangnan University

> <Link to Ligand in BindingDB>
http://www.bindingdb.org/bind/chemsearch/marvin/MolStructure.jsp?monomerid=124240

> <Link to Ligand-Target Pair in BindingDB>
http://www.bindingdb.org/jsp/dbsearch/PrimarySearch_ki.jsp?energyterm=kJ/mole&tag=pol&polymerid=2622&target=Tyrosine-protein+phosphatase+non-receptor+type+1&column=ki&startPg=0&Increment=50&submit=Sea
rch
http://www.bindingdb.org/jsp/dbsearch/PrimarySearch_ki.jsp?energyterm=kJ/mole&tag=r21&monomerid=124240&enzyme=Tyrosine-protein+phosphatase+non-receptor+type+1&column=ki&startPg=0&Increment=50&submit=S
earch

> <PubChem CID of Ligand>
86766299

> <PubChem SID of Ligand>
225150632

> <Number of Protein Chains in Target (bigger than 1 implies a multichain complex)>
1

> <BindingDB Target Chain Sequence>
MEMEKEFEQIDKSGSWAAIYQDIRHEASDFPCRVAKLPKNKNRNRYRDVSPFDHSRIKLHQEDNDYINASLIKMEEAQRSYILTQGPLPNTCGHFWEMVWEQKSRGVVMLNRVMEKGSLKCAQYWPQKEEKEMIFEDTNLKLTLISEDIKSYYTVRQLELENLTTQETREILHFHYTTWPDFGVPESPASFLNFLFKVRE
SGSLSPEHGPVVVHCSAGIGRSGTFCLADTCLLLMDKRKDPSSVDIKKVLLEMRKFRMGLIQTADQLRFSYLAVIEGAKFIMGDSSVQDQWKELSHEDLEPPPEHIPPPPRPPKRILEPHNGKCREFFPNHQWVKEETQEDKDCPIKEEKGSPLNAAPYGIESMSQDTEVRSRVVGGSLRGAQAASPAKGEPSLPEKDED
HALSYWKPFLVNMCVATVLTAGAYLCYRFLFNSNT

> <PDB ID(s) of Target Chain>
1BZJ,1G7G,1GFY,1JF7,1KAK,1KAV,1LQF,1NL9,1NNY,1NO6,1NZ7,1OEM,1OEO,1OES,1OET,1OEU,1OEV,1ONY,1ONZ,1PH0,1PXH,1PYN,1Q1M,1Q6J,1Q6M,1Q6N,1Q6P,1Q6S,1Q6T,1QXK,1SUG,1T48,1T49,1T4J,1WAX,1XBO,2AZR,2B07,2BGD,2BGE,
2CM2,2CM3,2CM7,2CM8,2CMA,2CMB,2CMC,2CNE,2CNF,2CNG,2CNH,2CNI,2F6T,2F6V,2F6W,2F6Y,2F6Z,2F70,2F71,2FJN,2H4G,2H4K,2HB1,2HNP,2HNQ,2QBP,2QBQ,2QBR,2QBS,2VEU,2VEV,2VEW,2VEX,2VEY,2ZMM,2ZN7,3A5J,3CWE,3D9C,3EAX,
3EB1,3EU0,3I7Z,3I80,3SME,4BJO,4I8N,4QBW,4Y14,5K9V,5K9W,5KA0,5KA1,5T19,6B90,6NTP,6W30,7KEY,7KLX,7LFO,7MN9,7MNA,8DU7,8G65,8G67,8G68,8G69,8G6A,8SKL

> <UniProt (SwissProt) Recommended Name of Target Chain>
Tyrosine-protein phosphatase non-receptor type 1

> <UniProt (SwissProt) Entry Name of Target Chain>
PTN1_HUMAN

> <UniProt (SwissProt) Primary ID of Target Chain>
P18031

> <UniProt (SwissProt) Secondary ID(s) of Target Chain>
Q5TGD8 Q9BQV9 Q9NQQ4

$$$$
Molecule
  SciTegic10242319433D

 31 33  0  0  0  0            999 V2000
   -3.1559    1.4381   -0.0696 C   0  0
   -4.3834    0.7860   -0.0205 C   0  0
   -4.4314   -0.6015    0.0338 C   0  0
   -3.2525   -1.3377    0.0346 C   0  0
   -2.0241   -0.6874   -0.0155 C   0  0
   -1.9740    0.7061   -0.0651 C   0  0
   -0.7785   -1.4662   -0.0396 C   0  0
    0.5257   -0.7645   -0.2227 C   0  0
    0.4045    0.6786    0.2772 C   0  0  2  0  0  0
   -0.7633    1.3630   -0.0916 O   0  0
    1.6835    1.4687    0.1518 C   0  0
    2.9003    0.7980    0.0860 C   0  0
    4.0889    1.5116   -0.0146 C   0  0
    4.0623    2.9007   -0.0488 C   0  0
    2.8465    3.5735    0.0155 C   0  0
    1.6569    2.8588    0.1166 C   0  0
   -5.5653    1.5200   -0.0225 O   0  0
   -3.3136   -2.7272    0.0798 O   0  0
   -0.8139   -2.7012   -0.0423 O   0  0
    5.2101    3.5899   -0.1423 F   0  0
   -3.1204    2.5267   -0.1119 H   0  0
   -5.3933   -1.1125    0.0759 H   0  0
    1.2992   -1.2818    0.3450 H   0  0
    0.7911   -0.7615   -1.2799 H   0  0
    0.2918    0.5589    1.3547 H   0  0
    2.9218   -0.2914    0.1134 H   0  0
    5.0404    0.9824   -0.0667 H   0  0
    2.8257    4.6629   -0.0134 H   0  0
    0.7053    3.3877    0.1681 H   0  0
   -5.5844    2.1559    0.8128 H   0  0
   -3.8068   -3.0280    0.9566 H   0  0
  1  2  4  0
  1  6  4  0
  2  3  4  0
  3  4  4  0
  4  5  4  0
  5  7  1  0
  6  5  4  0
  6 10  1  0
  7  8  1  0
  8  9  1  0
  9 10  1  0
  9 11  1  0
 11 12  4  0
 11 16  4  0
 12 13  4  0
 13 14  4  0
 14 15  4  0
 15 16  4  0
  2 17  1  0
  4 18  1  0
  7 19  2  0
 14 20  1  0
  1 21  1  0
  3 22  1  0
  8 23  1  0
  8 24  1  0
  9 25  1  0
 12 26  1  0
 13 27  1  0
 15 28  1  0
 16 29  1  0
 17 30  1  0
 18 31  1  0
M  END
> <Name>
Molecule

> <Clean Energy>
5.59836

> <From>
www.bindingDB.org

> <BindingDB Reactant_set_id>
424023

> <Ligand InChI>
InChI=1S/C15H11FO4/c16-9-3-1-8(2-4-9)13-7-12(19)15-11(18)5-10(17)6-14(15)20-13/h1-6,13,17-18H,7H2

> <Ligand InChI Key>
WFHLTJMKLINGAG-UHFFFAOYSA-N

> <BindingDB MonomerID>
243051

> <BindingDB Ligand Name>
PTP inhibitor, 4c

> <Target Name>
Tyrosine-protein phosphatase non-receptor type 1

> <Target Source Organism According to Curator or DataSource>
Homo sapiens

> <IC50 (nM)>
2660

> <pH>
6.5

> <Temp C>
30

> <Curation/DataSource>
Curated from the literature by BindingDB

> <Article DOI>
10.3109/14756366.2012.723206

> <BindingDB Entry DOI>
10.7270/Q2668C3G

> <PMID>
23009604

> <PubChem AID>
aid1803325

> <Authors>
Sun, LP; Ma, WP; Gao, LX; Yang, LL; Quan, YC; Li, J; Piao, HR

> <Institution>
Yanbian University College of Pharmacy

> <Link to Ligand in BindingDB>
http://www.bindingdb.org/bind/chemsearch/marvin/MolStructure.jsp?monomerid=243051

> <Link to Ligand-Target Pair in BindingDB>
http://www.bindingdb.org/jsp/dbsearch/PrimarySearch_ki.jsp?energyterm=kJ/mole&tag=pol&polymerid=2622&target=Tyrosine-protein+phosphatase+non-receptor+type+1&column=ki&startPg=0&Increment=50&submit=Sea
rch
http://www.bindingdb.org/jsp/dbsearch/PrimarySearch_ki.jsp?energyterm=kJ/mole&tag=r21&monomerid=243051&enzyme=Tyrosine-protein+phosphatase+non-receptor+type+1&column=ki&startPg=0&Increment=50&submit=S
earch

> <PubChem CID of Ligand>
85594210

> <PubChem SID of Ligand>
341095188

> <Number of Protein Chains in Target (bigger than 1 implies a multichain complex)>
1

> <BindingDB Target Chain Sequence>
MEMEKEFEQIDKSGSWAAIYQDIRHEASDFPCRVAKLPKNKNRNRYRDVSPFDHSRIKLHQEDNDYINASLIKMEEAQRSYILTQGPLPNTCGHFWEMVWEQKSRGVVMLNRVMEKGSLKCAQYWPQKEEKEMIFEDTNLKLTLISEDIKSYYTVRQLELENLTTQETREILHFHYTTWPDFGVPESPASFLNFLFKVRE
SGSLSPEHGPVVVHCSAGIGRSGTFCLADTCLLLMDKRKDPSSVDIKKVLLEMRKFRMGLIQTADQLRFSYLAVIEGAKFIMGDSSVQDQWKELSHEDLEPPPEHIPPPPRPPKRILEPHNGKCREFFPNHQWVKEETQEDKDCPIKEEKGSPLNAAPYGIESMSQDTEVRSRVVGGSLRGAQAASPAKGEPSLPEKDED
HALSYWKPFLVNMCVATVLTAGAYLCYRFLFNSNT

> <PDB ID(s) of Target Chain>
1BZJ,1G7G,1GFY,1JF7,1KAK,1KAV,1LQF,1NL9,1NNY,1NO6,1NZ7,1OEM,1OEO,1OES,1OET,1OEU,1OEV,1ONY,1ONZ,1PH0,1PXH,1PYN,1Q1M,1Q6J,1Q6M,1Q6N,1Q6P,1Q6S,1Q6T,1QXK,1SUG,1T48,1T49,1T4J,1WAX,1XBO,2AZR,2B07,2BGD,2BGE,
2CM2,2CM3,2CM7,2CM8,2CMA,2CMB,2CMC,2CNE,2CNF,2CNG,2CNH,2CNI,2F6T,2F6V,2F6W,2F6Y,2F6Z,2F70,2F71,2FJN,2H4G,2H4K,2HB1,2HNP,2HNQ,2QBP,2QBQ,2QBR,2QBS,2VEU,2VEV,2VEW,2VEX,2VEY,2ZMM,2ZN7,3A5J,3CWE,3D9C,3EAX,
3EB1,3EU0,3I7Z,3I80,3SME,4BJO,4I8N,4QBW,4Y14,5K9V,5K9W,5KA0,5KA1,5T19,6B90,6NTP,6W30,7KEY,7KLX,7LFO,7MN9,7MNA,8DU7,8G65,8G67,8G68,8G69,8G6A,8SKL

> <UniProt (SwissProt) Recommended Name of Target Chain>
Tyrosine-protein phosphatase non-receptor type 1

> <UniProt (SwissProt) Entry Name of Target Chain>
PTN1_HUMAN

> <UniProt (SwissProt) Primary ID of Target Chain>
P18031

> <UniProt (SwissProt) Secondary ID(s) of Target Chain>
Q5TGD8 Q9BQV9 Q9NQQ4

$$$$
Molecule
  SciTegic10242319433D

 76 80  0  0  0  0            999 V2000
   24.5224  -20.2517    1.2762 O   0  0
   25.4972  -20.1462    0.1201 S   0  0
   24.7518  -20.3640   -1.1829 O   0  0
   35.3408  -25.1707   -0.1558 C   0  0  2  0  0  0
   36.5207  -24.4528    0.1519 O   0  0
   36.5252  -23.0415    0.1605 C   0  0
   35.3868  -22.3302    0.0878 C   0  0
   34.1663  -24.4253    0.5481 C   0  0  1  0  0  0
   34.0807  -23.0454    0.0038 C   0  0  2  0  0  0
   33.5666  -23.3114   -1.4319 C   0  0
   32.4874  -24.3280   -1.0325 C   0  0
   32.8445  -24.9341    0.1153 C   0  0
   35.4013  -20.8642    0.0910 C   0  0
   34.3169  -20.2722    0.0510 O   0  0
   32.0121  -25.9730    0.8957 C   0  0
   30.7778  -26.4021    0.2256 O   0  0
   33.2806  -22.4863    0.5103 H   0  0
   34.3492  -24.4616    1.6316 H   0  0
   35.4155  -26.5221    0.2932 O   0  0
   29.7041  -25.4531    0.1922 C   0  0
   29.8001  -24.2512    0.7678 C   0  0
   28.7142  -23.2890    0.6551 C   0  0
   27.6088  -23.6056   -0.0134 C   0  0
   27.4749  -24.9299   -0.6208 C   0  0
   28.4721  -25.8082   -0.5236 C   0  0
   26.5504  -22.6127   -0.1646 C   0  0
   26.7444  -21.3825    0.3058 C   0  0
   26.2133  -18.6054    0.1348 O   0  0
   25.1943  -17.6111    0.0127 C   0  0
   25.8334  -16.2112    0.0480 C   0  0
   36.4992  -27.1781   -0.3674 C   0  0
   36.5707  -20.1999    0.1179 N   0  0
   36.6970  -18.7691    0.0994 C   0  0
   37.9133  -18.2274    0.0971 C   0  0
   38.0796  -16.7656    0.0680 C   0  0
   37.0194  -15.9492    0.0415 C   0  0
   35.6839  -16.5555    0.0445 C   0  0
   35.5296  -17.8777    0.0717 C   0  0
   37.0700  -14.4867    0.0093 O   0  0
   38.2933  -13.6880   -0.0014 C   0  0
   39.5376  -14.1788    0.0146 C   0  0
   40.7003  -13.2872    0.0019 C   0  0
   40.5300  -11.9683   -0.0258 C   0  0
   39.1809  -11.4136   -0.0438 C   0  0
   38.1247  -12.2253   -0.0325 C   0  0
   35.1815  -25.1574   -1.2340 H   0  0
   37.4768  -22.5143    0.2278 H   0  0
   33.1512  -22.4199   -1.9018 H   0  0
   34.3307  -23.7416   -2.0793 H   0  0
   31.5735  -24.5280   -1.5918 H   0  0
   32.6339  -26.8535    1.0570 H   0  0
   31.7417  -25.5373    1.8576 H   0  0
   30.6989  -23.9893    1.3260 H   0  0
   28.8068  -22.3072    1.1194 H   0  0
   26.5613  -25.1975   -1.1517 H   0  0
   28.3729  -26.7944   -0.9772 H   0  0
   25.6133  -22.8747   -0.6560 H   0  0
   27.6796  -21.1367    0.8089 H   0  0
   24.6674  -17.7457   -0.9320 H   0  0
   24.4905  -17.7095    0.8391 H   0  0
   25.0554  -15.4536   -0.0453 H   0  0
   26.5375  -16.1117   -0.7782 H   0  0
   26.3606  -16.0756    0.9923 H   0  0
   36.5605  -28.2118   -0.0273 H   0  0
   37.4318  -26.6639   -0.1351 H   0  0
   36.3333  -27.1598   -1.4446 H   0  0
   37.4703  -20.7781    0.1557 H   0  0
   38.7924  -18.8716    0.1170 H   0  0
   39.0833  -16.3405    0.0680 H   0  0
   34.8035  -15.9133    0.0242 H   0  0
   34.5262  -18.3034    0.0733 H   0  0
   39.6888  -15.2580    0.0374 H   0  0
   41.7068  -13.7055    0.0152 H   0  0
   41.3948  -11.3048   -0.0350 H   0  0
   39.0368  -10.3334   -0.0666 H   0  0
   37.1209  -11.8007   -0.0464 H   0  0
  2  1  2  0
  3  2  2  0
  9  7  1  0
  8  4  1  0
  4  5  1  0
  5  6  1  0
  6  7  2  0
  8  9  1  0
  9 10  1  0
 10 11  1  0
 11 12  2  0
 12  8  1  0
  7 13  1  0
 13 14  2  0
 12 15  1  0
 15 16  1  0
  9 17  1  0
  8 18  1  0
  4 19  1  0
 16 20  1  0
 20 21  2  0
 21 22  1  0
 22 23  2  0
 23 24  1  0
 24 25  2  0
 25 20  1  0
 23 26  1  0
 26 27  2  0
 27  2  1  0
  2 28  1  0
 28 29  1  0
 29 30  1  0
 19 31  1  0
 13 32  1  0
 32 33  1  0
 33 34  2  0
 34 35  1  0
 35 36  2  0
 36 37  1  0
 37 38  2  0
 38 33  1  0
 36 39  1  0
 39 40  1  0
 40 41  2  0
 41 42  1  0
 42 43  2  0
 43 44  1  0
 44 45  2  0
 45 40  1  0
  4 46  1  0
  6 47  1  0
 10 48  1  0
 10 49  1  0
 11 50  1  0
 15 51  1  0
 15 52  1  0
 21 53  1  0
 22 54  1  0
 24 55  1  0
 25 56  1  0
 26 57  1  0
 27 58  1  0
 29 59  1  0
 29 60  1  0
 30 61  1  0
 30 62  1  0
 30 63  1  0
 31 64  1  0
 31 65  1  0
 31 66  1  0
 32 67  1  0
 34 68  1  0
 35 69  1  0
 37 70  1  0
 38 71  1  0
 41 72  1  0
 42 73  1  0
 43 74  1  0
 44 75  1  0
 45 76  1  0
M  END
> <Name>
Molecule

> <Clean Energy>
65.4491

> <From>
www.bindingDB.org

> <BindingDB Reactant_set_id>
51399945

> <Ligand InChI>
InChI=1S/C33H33NO8S/c1-3-41-43(36,37)20-19-23-9-14-26(15-10-23)39-21-24-11-18-29-30(22-40-33(38-2)31(24)29)32(35)34-25-12-16-28(17-13-25)42-27-7-5-4-6-8-27/h4-17,19-20,22,29,31,33H,3,18,21H2,1-2H3,(H,
34,35)/b20-19+/t29-,31-,33-/m1/s1

> <Ligand InChI Key>
RAZGKMCAJNNXSY-SAYYVBKLSA-N

> <BindingDB MonomerID>
50565468

> <BindingDB Ligand Name>
CHEMBL4782460

> <Target Name>
Tyrosine-protein phosphatase non-receptor type 1

> <Target Source Organism According to Curator or DataSource>
Homo sapiens

> <IC50 (nM)>
2670

> <Curation/DataSource>
ChEMBL

> <Article DOI>
10.1016/j.ejmech.2020.112508

> <BindingDB Entry DOI>
10.7270/Q2QJ7N1M

> <PMID>
32738350

> <Authors>
Lei, S; Zhang, D; Qi, Y; Chowdhury, SR; Sun, R; Wang, J; Du, Y; Fu, L; Jiang, F

> <Institution>
Shanghai Jiao Tong University

> <Link to Ligand in BindingDB>
http://www.bindingdb.org/bind/chemsearch/marvin/MolStructure.jsp?monomerid=50565468

> <Link to Ligand-Target Pair in BindingDB>
http://www.bindingdb.org/jsp/dbsearch/PrimarySearch_ki.jsp?energyterm=kJ/mole&tag=pol&polymerid=2622&target=Tyrosine-protein+phosphatase+non-receptor+type+1&column=ki&startPg=0&Increment=50&submit=Sea
rch
http://www.bindingdb.org/jsp/dbsearch/PrimarySearch_ki.jsp?energyterm=kJ/mole&tag=r21&monomerid=50565468&enzyme=Tyrosine-protein+phosphatase+non-receptor+type+1&column=ki&startPg=0&Increment=50&submit
=Search

> <PubChem CID of Ligand>
162666058

> <PubChem SID of Ligand>
461685806

> <Number of Protein Chains in Target (bigger than 1 implies a multichain complex)>
1

> <BindingDB Target Chain Sequence>
MEMEKEFEQIDKSGSWAAIYQDIRHEASDFPCRVAKLPKNKNRNRYRDVSPFDHSRIKLHQEDNDYINASLIKMEEAQRSYILTQGPLPNTCGHFWEMVWEQKSRGVVMLNRVMEKGSLKCAQYWPQKEEKEMIFEDTNLKLTLISEDIKSYYTVRQLELENLTTQETREILHFHYTTWPDFGVPESPASFLNFLFKVRE
SGSLSPEHGPVVVHCSAGIGRSGTFCLADTCLLLMDKRKDPSSVDIKKVLLEMRKFRMGLIQTADQLRFSYLAVIEGAKFIMGDSSVQDQWKELSHEDLEPPPEHIPPPPRPPKRILEPHNGKCREFFPNHQWVKEETQEDKDCPIKEEKGSPLNAAPYGIESMSQDTEVRSRVVGGSLRGAQAASPAKGEPSLPEKDED
HALSYWKPFLVNMCVATVLTAGAYLCYRFLFNSNT

> <PDB ID(s) of Target Chain>
1BZJ,1G7G,1GFY,1JF7,1KAK,1KAV,1LQF,1NL9,1NNY,1NO6,1NZ7,1OEM,1OEO,1OES,1OET,1OEU,1OEV,1ONY,1ONZ,1PH0,1PXH,1PYN,1Q1M,1Q6J,1Q6M,1Q6N,1Q6P,1Q6S,1Q6T,1QXK,1SUG,1T48,1T49,1T4J,1WAX,1XBO,2AZR,2B07,2BGD,2BGE,
2CM2,2CM3,2CM7,2CM8,2CMA,2CMB,2CMC,2CNE,2CNF,2CNG,2CNH,2CNI,2F6T,2F6V,2F6W,2F6Y,2F6Z,2F70,2F71,2FJN,2H4G,2H4K,2HB1,2HNP,2HNQ,2QBP,2QBQ,2QBR,2QBS,2VEU,2VEV,2VEW,2VEX,2VEY,2ZMM,2ZN7,3A5J,3CWE,3D9C,3EAX,
3EB1,3EU0,3I7Z,3I80,3SME,4BJO,4I8N,4QBW,4Y14,5K9V,5K9W,5KA0,5KA1,5T19,6B90,6NTP,6W30,7KEY,7KLX,7LFO,7MN9,7MNA,8DU7,8G65,8G67,8G68,8G69,8G6A,8SKL

> <UniProt (SwissProt) Recommended Name of Target Chain>
Tyrosine-protein phosphatase non-receptor type 1

> <UniProt (SwissProt) Entry Name of Target Chain>
PTN1_HUMAN

> <UniProt (SwissProt) Primary ID of Target Chain>
P18031

> <UniProt (SwissProt) Secondary ID(s) of Target Chain>
Q5TGD8 Q9BQV9 Q9NQQ4

$$$$
Molecule
  SciTegic10242319433D

 93 98  0  0  0  0            999 V2000
   33.2589  -20.7353   -0.5368 C   0  0  2  0  0  0
   33.3962  -19.3595    0.1855 C   0  0
   32.1252  -21.6102    0.1676 C   0  0  1  0  0  0
   29.4789  -21.4939    0.6958 C   0  0  2  0  0  0
   36.0218  -19.4376   -0.0551 C   0  0  1  0  0  0
   34.6825  -18.5370    0.1024 C   0  0  1  0  0  0
   30.7746  -20.7445    0.1466 C   0  0  1  0  0  0
   29.3295  -22.8254   -0.1952 C   0  0  2  0  0  0
   28.0187  -23.6860    0.1415 C   0  0
   32.3598  -18.7955    0.8175 C   0  0
   36.3723  -20.0409    1.3340 C   0  0
   34.6058  -21.4880   -0.6032 C   0  0
   31.8616  -22.9018   -0.6414 C   0  0
   30.9981  -19.4649    1.0065 C   0  0
   35.7580  -20.5667   -1.1198 C   0  0
   28.2083  -20.6481    0.4750 C   0  0
   30.6306  -23.7050   -0.0623 C   0  0
   37.2206  -18.5396   -0.5958 C   0  0
   34.6963  -17.6256   -1.0974 C   0  0
   26.7864  -22.7403   -0.0579 C   0  0  2  0  0  0
   35.8640  -16.5467   -0.8012 C   0  0
   35.7429  -20.9717    1.8472 O   0  0
   26.9368  -21.4818    0.8950 C   0  0
   37.0648  -17.2030    0.0069 C   0  0
   32.8822  -20.4416   -2.0271 C   0  0
   37.4420  -19.5076    2.0472 O   0  0
   32.6628  -22.0144    1.5886 C   0  0
   29.5891  -21.7007    2.2496 C   0  0
   35.3555  -15.3652    0.0654 C   0  0
   36.3208  -15.9893   -2.1595 C   0  0
   27.9268  -24.8669   -0.8439 C   0  0
   27.9709  -24.3175    1.5700 C   0  0
   25.4995  -23.5947    0.2541 C   0  0
   24.1321  -22.9267    0.0622 C   0  0
   23.9883  -21.7096   -0.4673 C   0  0
   22.6515  -21.1273   -0.6313 C   0  0
   21.5727  -21.8149   -0.2611 C   0  0
   21.7219  -23.1522    0.3094 C   0  0
   22.9354  -23.6789    0.4632 C   0  0
   34.7708  -17.9313    1.0044 H   0  0
   30.5817  -20.4366   -0.8811 H   0  0
   29.2540  -22.5125   -1.2365 H   0  0
   32.4954  -17.7932    1.2240 H   0  0
   34.8601  -21.8454    0.3947 H   0  0
   34.5029  -22.3372   -1.2786 H   0  0
   31.6545  -22.6348   -1.6777 H   0  0
   32.7486  -23.5338   -0.5988 H   0  0
   30.2256  -18.7416    0.7452 H   0  0
   30.8986  -19.7403    2.0564 H   0  0
   35.4680  -20.1148   -2.0684 H   0  0
   36.6637  -21.1568   -1.2598 H   0  0
   28.2651  -19.7438    1.0809 H   0  0
   28.1321  -20.3765   -0.5778 H   0  0
   30.8082  -23.9369    0.9878 H   0  0
   30.5033  -24.6311   -0.6229 H   0  0
   38.1758  -18.9739   -0.3008 H   0  0
   37.1736  -18.4678   -1.6824 H   0  0
   34.9191  -18.1902   -2.0028 H   0  0
   33.7340  -17.1257   -1.2078 H   0  0
   26.7537  -22.4052   -1.0946 H   0  0
   27.0483  -21.8188    1.9256 H   0  0
   26.0487  -20.8555    0.8111 H   0  0
   36.8194  -17.2831    1.0659 H   0  0
   37.9762  -16.6171   -0.1121 H   0  0
   32.7768  -21.3821   -2.5679 H   0  0
   33.6671  -19.8432   -2.4897 H   0  0
   31.9400  -19.8948   -2.0633 H   0  0
   38.3232  -19.6085    1.4851 H   0  0
   31.9135  -22.6156    2.1036 H   0  0
   32.8680  -21.1151    2.1694 H   0  0
   33.5800  -22.5931    1.4796 H   0  0
   28.6983  -22.2135    2.6125 H   0  0
   29.6750  -20.7313    2.7405 H   0  0
   30.4704  -22.3012    2.4752 H   0  0
   36.1719  -14.6644    0.2401 H   0  0
   34.9922  -15.7444    1.0205 H   0  0
   34.5447  -14.8551   -0.4547 H   0  0
   37.1111  -15.2549   -2.0042 H   0  0
   35.4772  -15.5140   -2.6601 H   0  0
   36.6984  -16.8032   -2.7784 H   0  0
   27.0381  -25.4576   -0.6221 H   0  0
   28.8131  -25.4936   -0.7444 H   0  0
   27.8643  -24.4861   -1.8633 H   0  0
   27.0429  -24.8765    1.6897 H   0  0
   28.0175  -23.5269    2.3190 H   0  0
   28.8188  -24.9901    1.6990 H   0  0
   25.5266  -24.4709   -0.3936 H   0  0
   25.5637  -23.9099    1.2955 H   0  0
   24.8677  -21.1460   -0.7790 H   0  0
   22.5412  -20.1300   -1.0570 H   0  0
   20.5802  -21.3811   -0.3834 H   0  0
   20.8400  -23.7185    0.6089 H   0  0
   23.0416  -24.6761    0.8902 H   0  0
  2  1  1  0
  3  1  1  0
  4  7  1  0
  5 15  1  0
  6  2  1  0
  7  3  1  0
  8 17  1  0
  9  8  1  0
 10  2  2  0
  5 11  1  0
 12  1  1  0
 13  3  1  0
  7 14  1  0
 15 12  1  0
 16  4  1  0
 17 13  1  0
 18  5  1  0
  6 19  1  0
 20  9  1  0
 21 19  1  0
 22 11  2  0
 23 16  1  0
 24 18  1  0
  1 25  1  0
 26 11  1  0
  3 27  1  0
  4 28  1  0
 29 21  1  0
 30 21  1  0
  5  6  1  0
 14 10  1  0
  8  4  1  0
 21 24  1  0
 20 23  1  0
  9 31  1  0
  9 32  1  0
 20 33  1  0
 33 34  1  0
 34 35  2  0
 35 36  1  0
 36 37  2  0
 37 38  1  0
 38 39  2  0
 39 34  1  0
  6 40  1  0
  7 41  1  0
  8 42  1  0
 10 43  1  0
 12 44  1  0
 12 45  1  0
 13 46  1  0
 13 47  1  0
 14 48  1  0
 14 49  1  0
 15 50  1  0
 15 51  1  0
 16 52  1  0
 16 53  1  0
 17 54  1  0
 17 55  1  0
 18 56  1  0
 18 57  1  0
 19 58  1  0
 19 59  1  0
 20 60  1  0
 23 61  1  0
 23 62  1  0
 24 63  1  0
 24 64  1  0
 25 65  1  0
 25 66  1  0
 25 67  1  0
 26 68  1  0
 27 69  1  0
 27 70  1  0
 27 71  1  0
 28 72  1  0
 28 73  1  0
 28 74  1  0
 29 75  1  0
 29 76  1  0
 29 77  1  0
 30 78  1  0
 30 79  1  0
 30 80  1  0
 31 81  1  0
 31 82  1  0
 31 83  1  0
 32 84  1  0
 32 85  1  0
 32 86  1  0
 33 87  1  0
 33 88  1  0
 35 89  1  0
 36 90  1  0
 37 91  1  0
 38 92  1  0
 39 93  1  0
M  END
> <Name>
Molecule

> <Clean Energy>
101.683

> <From>
www.bindingDB.org

> <BindingDB Reactant_set_id>
51186510

> <Ligand InChI>
InChI=1S/C37H54O2/c1-32(2)19-21-37(31(38)39)22-20-35(6)27(28(37)24-32)13-14-30-34(5)17-15-26(23-25-11-9-8-10-12-25)33(3,4)29(34)16-18-36(30,35)7/h8-13,26,28-30H,14-24H2,1-7H3,(H,38,39)/t26-,28+,29+,30
-,34+,35-,36-,37+/m1/s1

> <Ligand InChI Key>
PECNJJVDRYCPNG-UQHUKLANSA-N

> <BindingDB MonomerID>
50487807

> <BindingDB Ligand Name>
CHEMBL2262826

> <Target Name>
Tyrosine-protein phosphatase non-receptor type 1

> <Target Source Organism According to Curator or DataSource>
Homo sapiens

> <IC50 (nM)>
2670

> <Curation/DataSource>
ChEMBL

> <Article DOI>
10.1007/s00044-010-9529-5

> <BindingDB Entry DOI>
10.7270/Q2F76GFZ

> <Authors>
n/a

> <Institution>
n/a

> <Link to Ligand in BindingDB>
http://www.bindingdb.org/bind/chemsearch/marvin/MolStructure.jsp?monomerid=50487807

> <Link to Ligand-Target Pair in BindingDB>
http://www.bindingdb.org/jsp/dbsearch/PrimarySearch_ki.jsp?energyterm=kJ/mole&tag=pol&polymerid=2622&target=Tyrosine-protein+phosphatase+non-receptor+type+1&column=ki&startPg=0&Increment=50&submit=Sea
rch
http://www.bindingdb.org/jsp/dbsearch/PrimarySearch_ki.jsp?energyterm=kJ/mole&tag=r21&monomerid=50487807&enzyme=Tyrosine-protein+phosphatase+non-receptor+type+1&column=ki&startPg=0&Increment=50&submit
=Search

> <PubChem CID of Ligand>
76312236

> <PubChem SID of Ligand>
433955072

> <Number of Protein Chains in Target (bigger than 1 implies a multichain complex)>
1

> <BindingDB Target Chain Sequence>
MEMEKEFEQIDKSGSWAAIYQDIRHEASDFPCRVAKLPKNKNRNRYRDVSPFDHSRIKLHQEDNDYINASLIKMEEAQRSYILTQGPLPNTCGHFWEMVWEQKSRGVVMLNRVMEKGSLKCAQYWPQKEEKEMIFEDTNLKLTLISEDIKSYYTVRQLELENLTTQETREILHFHYTTWPDFGVPESPASFLNFLFKVRE
SGSLSPEHGPVVVHCSAGIGRSGTFCLADTCLLLMDKRKDPSSVDIKKVLLEMRKFRMGLIQTADQLRFSYLAVIEGAKFIMGDSSVQDQWKELSHEDLEPPPEHIPPPPRPPKRILEPHNGKCREFFPNHQWVKEETQEDKDCPIKEEKGSPLNAAPYGIESMSQDTEVRSRVVGGSLRGAQAASPAKGEPSLPEKDED
HALSYWKPFLVNMCVATVLTAGAYLCYRFLFNSNT

> <PDB ID(s) of Target Chain>
1BZJ,1G7G,1GFY,1JF7,1KAK,1KAV,1LQF,1NL9,1NNY,1NO6,1NZ7,1OEM,1OEO,1OES,1OET,1OEU,1OEV,1ONY,1ONZ,1PH0,1PXH,1PYN,1Q1M,1Q6J,1Q6M,1Q6N,1Q6P,1Q6S,1Q6T,1QXK,1SUG,1T48,1T49,1T4J,1WAX,1XBO,2AZR,2B07,2BGD,2BGE,
2CM2,2CM3,2CM7,2CM8,2CMA,2CMB,2CMC,2CNE,2CNF,2CNG,2CNH,2CNI,2F6T,2F6V,2F6W,2F6Y,2F6Z,2F70,2F71,2FJN,2H4G,2H4K,2HB1,2HNP,2HNQ,2QBP,2QBQ,2QBR,2QBS,2VEU,2VEV,2VEW,2VEX,2VEY,2ZMM,2ZN7,3A5J,3CWE,3D9C,3EAX,
3EB1,3EU0,3I7Z,3I80,3SME,4BJO,4I8N,4QBW,4Y14,5K9V,5K9W,5KA0,5KA1,5T19,6B90,6NTP,6W30,7KEY,7KLX,7LFO,7MN9,7MNA,8DU7,8G65,8G67,8G68,8G69,8G6A,8SKL

> <UniProt (SwissProt) Recommended Name of Target Chain>
Tyrosine-protein phosphatase non-receptor type 1

> <UniProt (SwissProt) Entry Name of Target Chain>
PTN1_HUMAN

> <UniProt (SwissProt) Primary ID of Target Chain>
P18031

> <UniProt (SwissProt) Secondary ID(s) of Target Chain>
Q5TGD8 Q9BQV9 Q9NQQ4

$$$$
Molecule
  SciTegic10242319433D

 48 51  0  0  0  0            999 V2000
    1.8864  -16.4383   -0.0001 O   0  0
    3.1626  -17.1960    0.0000 C   0  0
    3.0772  -18.5300   -0.0001 C   0  0
    4.2923  -19.3796    0.0000 C   0  0
    5.5051  -18.8257    0.0001 C   0  0
    5.6219  -17.3662    0.0002 C   0  0
    4.5287  -16.5990    0.0001 C   0  0
    6.7299  -19.6792    0.0001 C   0  0
    6.7548  -21.3341    0.0000 S   0  0
    8.4097  -21.4818    0.0001 C   0  0
    8.9268  -20.3053    0.0003 N   0  0
    7.9429  -19.2507    0.0003 N   0  0
    9.1157  -22.7211    0.0001 N   0  0
   10.4553  -22.8073    0.0002 C   0  0
   11.0955  -24.1458    0.0001 C   0  0
   11.1529  -21.7868    0.0004 O   0  0
   10.3288  -25.2352   -0.0001 C   0  0
   10.9374  -26.5681   -0.0002 C   0  0
   12.2621  -26.6983    0.0000 C   0  0
   13.1172  -25.5107    0.0002 C   0  0
   12.5686  -24.2909    0.0003 C   0  0
    1.7869  -14.9697   -0.0001 C   0  0
    2.8419  -14.1497   -0.0001 C   0  0
    2.6799  -12.6961   -0.0001 C   0  0
    1.4646  -12.1576   -0.0001 C   0  0
    0.2921  -13.0204   -0.0001 C   0  0
    0.4262  -14.3451   -0.0001 C   0  0
    1.3174  -10.7693   -0.0001 N   0  3
    0.2427  -10.2913   -0.0001 O   0  0
    2.3886   -9.9903   -0.0002 O   0  5
   14.5093  -25.6694    0.0004 N   0  3
   15.2125  -24.7280    0.0006 O   0  0
   15.0350  -26.8889    0.0003 O   0  5
   -0.7324  -15.1339   -0.0001 N   0  3
   -0.6611  -16.3049   -0.0001 O   0  0
   -1.9230  -14.5442   -0.0001 O   0  5
    2.0950  -19.0024   -0.0002 H   0  0
    4.1934  -20.4651   -0.0001 H   0  0
    6.6083  -16.9024    0.0003 H   0  0
    4.6374  -15.5145    0.0002 H   0  0
    8.5486  -23.6285   -0.0001 H   0  0
    9.2434  -25.1346   -0.0002 H   0  0
   10.3039  -27.4551   -0.0003 H   0  0
   12.7109  -27.6917   -0.0001 H   0  0
   13.2047  -23.4058    0.0005 H   0  0
    3.8460  -14.5737   -0.0001 H   0  0
    3.5592  -12.0518   -0.0001 H   0  0
   -0.7041  -12.5782   -0.0001 H   0  0
  1  2  1  0
  2  3  2  0
  3  4  1  0
  4  5  2  0
  5  6  1  0
  6  7  2  0
  7  2  1  0
  8  9  1  0
  9 10  1  0
 10 11  2  0
 11 12  1  0
 12  8  2  0
  5  8  1  0
 10 13  1  0
 13 14  1  0
 14 15  1  0
 14 16  2  0
 15 17  2  0
 17 18  1  0
 18 19  2  0
 19 20  1  0
 20 21  2  0
 21 15  1  0
  1 22  1  0
 22 23  2  0
 23 24  1  0
 24 25  2  0
 25 26  1  0
 26 27  2  0
 27 22  1  0
 28 29  2  0
 28 30  1  0
 25 28  1  0
 31 32  2  0
 31 33  1  0
 20 31  1  0
 34 35  2  0
 34 36  1  0
 27 34  1  0
  3 37  1  0
  4 38  1  0
  6 39  1  0
  7 40  1  0
 13 41  1  0
 17 42  1  0
 18 43  1  0
 19 44  1  0
 21 45  1  0
 23 46  1  0
 24 47  1  0
 26 48  1  0
M  CHG  6  28   1  30  -1  31   1  33  -1  34   1  36  -1
M  END
> <Name>
Molecule

> <Clean Energy>
29.9864

> <From>
www.bindingDB.org

> <BindingDB Reactant_set_id>
50289289

> <Ligand InChI>
InChI=1S/C21H12N6O8S/c28-19(13-2-1-3-14(10-13)25(29)30)22-21-24-23-20(36-21)12-4-7-16(8-5-12)35-18-9-6-15(26(31)32)11-17(18)27(33)34/h1-11H,(H,22,24,28)

> <Ligand InChI Key>
ORUHKFFJYWHOQG-UHFFFAOYSA-N

> <BindingDB MonomerID>
50057670

> <BindingDB Ligand Name>
CHEMBL3322855

> <Target Name>
Tyrosine-protein phosphatase non-receptor type 1

> <Target Source Organism According to Curator or DataSource>
Homo sapiens

> <IC50 (nM)>
2670

> <Curation/DataSource>
ChEMBL

> <Article DOI>
10.1016/j.bmcl.2014.07.055

> <BindingDB Entry DOI>
10.7270/Q2MP54XR

> <PMID>
25124112

> <Authors>
Li, Y; Yu, Y; Jin, K; Gao, L; Luo, T; Sheng, L; Shao, X; Li, J

> <Institution>
Liaoning Normal University

> <Link to Ligand in BindingDB>
http://www.bindingdb.org/bind/chemsearch/marvin/MolStructure.jsp?monomerid=50057670

> <Link to Ligand-Target Pair in BindingDB>
http://www.bindingdb.org/jsp/dbsearch/PrimarySearch_ki.jsp?energyterm=kJ/mole&tag=pol&polymerid=2622&target=Tyrosine-protein+phosphatase+non-receptor+type+1&column=ki&startPg=0&Increment=50&submit=Sea
rch
http://www.bindingdb.org/jsp/dbsearch/PrimarySearch_ki.jsp?energyterm=kJ/mole&tag=r21&monomerid=50057670&enzyme=Tyrosine-protein+phosphatase+non-receptor+type+1&column=ki&startPg=0&Increment=50&submit
=Search

> <PubChem CID of Ligand>
118710357

> <PubChem SID of Ligand>
103953692

> <ChEMBL ID of Ligand>
CHEMBL3322855

> <ZINC ID of Ligand>
ZINC13761891

> <Number of Protein Chains in Target (bigger than 1 implies a multichain complex)>
1

> <BindingDB Target Chain Sequence>
MEMEKEFEQIDKSGSWAAIYQDIRHEASDFPCRVAKLPKNKNRNRYRDVSPFDHSRIKLHQEDNDYINASLIKMEEAQRSYILTQGPLPNTCGHFWEMVWEQKSRGVVMLNRVMEKGSLKCAQYWPQKEEKEMIFEDTNLKLTLISEDIKSYYTVRQLELENLTTQETREILHFHYTTWPDFGVPESPASFLNFLFKVRE
SGSLSPEHGPVVVHCSAGIGRSGTFCLADTCLLLMDKRKDPSSVDIKKVLLEMRKFRMGLIQTADQLRFSYLAVIEGAKFIMGDSSVQDQWKELSHEDLEPPPEHIPPPPRPPKRILEPHNGKCREFFPNHQWVKEETQEDKDCPIKEEKGSPLNAAPYGIESMSQDTEVRSRVVGGSLRGAQAASPAKGEPSLPEKDED
HALSYWKPFLVNMCVATVLTAGAYLCYRFLFNSNT

> <PDB ID(s) of Target Chain>
1BZJ,1G7G,1GFY,1JF7,1KAK,1KAV,1LQF,1NL9,1NNY,1NO6,1NZ7,1OEM,1OEO,1OES,1OET,1OEU,1OEV,1ONY,1ONZ,1PH0,1PXH,1PYN,1Q1M,1Q6J,1Q6M,1Q6N,1Q6P,1Q6S,1Q6T,1QXK,1SUG,1T48,1T49,1T4J,1WAX,1XBO,2AZR,2B07,2BGD,2BGE,
2CM2,2CM3,2CM7,2CM8,2CMA,2CMB,2CMC,2CNE,2CNF,2CNG,2CNH,2CNI,2F6T,2F6V,2F6W,2F6Y,2F6Z,2F70,2F71,2FJN,2H4G,2H4K,2HB1,2HNP,2HNQ,2QBP,2QBQ,2QBR,2QBS,2VEU,2VEV,2VEW,2VEX,2VEY,2ZMM,2ZN7,3A5J,3CWE,3D9C,3EAX,
3EB1,3EU0,3I7Z,3I80,3SME,4BJO,4I8N,4QBW,4Y14,5K9V,5K9W,5KA0,5KA1,5T19,6B90,6NTP,6W30,7KEY,7KLX,7LFO,7MN9,7MNA,8DU7,8G65,8G67,8G68,8G69,8G6A,8SKL

> <UniProt (SwissProt) Recommended Name of Target Chain>
Tyrosine-protein phosphatase non-receptor type 1

> <UniProt (SwissProt) Entry Name of Target Chain>
PTN1_HUMAN

> <UniProt (SwissProt) Primary ID of Target Chain>
P18031

> <UniProt (SwissProt) Secondary ID(s) of Target Chain>
Q5TGD8 Q9BQV9 Q9NQQ4

$$$$
Molecule
  SciTegic10242319433D

 75 79  0  0  0  0            999 V2000
    1.0971  -16.4062   -0.3563 C   0  0
    2.3989  -15.6216   -0.3643 C   0  0
    3.5904  -16.2543   -0.2611 N   0  0
    2.3363  -14.4011   -0.5473 O   0  0
    4.9008  -15.5602   -0.3847 C   0  0  2  0  0  0
    6.0604  -16.5767   -0.1360 C   0  0
    4.9747  -14.1733    0.4795 C   0  0
    6.2378  -13.2347    0.3427 C   0  0
    5.9557  -18.2070    0.1985 S   0  0
    7.6238  -18.5347    0.2667 C   0  0
    8.2090  -17.3570    0.0201 C   0  0
    7.2934  -16.2767   -0.2162 N   0  0
    7.4370  -13.7181    0.0693 C   0  0
    8.6070  -12.9075   -0.0276 C   0  0
    8.5303  -11.5983    0.1456 C   0  0
    7.2118  -10.9929    0.4371 C   0  0
    6.1225  -11.7718    0.5389 C   0  0
    9.6691  -17.0804   -0.0260 C   0  0
   10.5722  -18.0687    0.1352 N   0  0
   12.0043  -17.8655    0.1014 C   0  0
   -0.0829  -15.5493    0.1556 C   0  0
   -1.4032  -16.3370   -0.0188 C   0  0
   -1.3186  -17.6821    0.7362 C   0  0
   -0.1482  -18.5234    0.1702 C   0  0
    1.1945  -17.7661    0.3573 C   0  0
    9.7115  -10.8251    0.0732 O   0  0
   10.8415  -11.7110   -0.1583 C   0  0
   12.1449  -10.9793   -0.1101 C   0  0
   13.2872  -11.6648   -0.1653 C   0  0
   14.5692  -10.9600   -0.1105 C   0  0
   14.5917   -9.6324   -0.0060 C   0  0
   13.3336   -8.8807    0.0545 C   0  0
   12.1681   -9.5239    0.0061 C   0  0
   10.0235  -15.9209   -0.2273 O   0  0
   12.7982  -18.9381    0.1394 C   0  0
   14.2588  -18.7872    0.1028 C   0  0
   14.8102  -17.5780    0.0345 C   0  0
   13.9558  -16.3888   -0.0039 C   0  0
   12.6291  -16.5215    0.0266 C   0  0
   16.2700  -17.4423   -0.0038 C   0  0
   17.0725  -18.5798    0.0203 O   0  0
   16.7892  -16.3222   -0.0605 O   0  0
    0.8751  -16.6300   -1.3998 H   0  0
    3.5904  -17.3090   -0.0813 H   0  0
    4.9835  -15.2642   -1.4304 H   0  0
    4.1063  -13.5781    0.1973 H   0  0
    4.8994  -14.4511    1.5308 H   0  0
    8.1077  -19.4907    0.4667 H   0  0
    7.5373  -14.7916   -0.0903 H   0  0
    9.5697  -13.3697   -0.2457 H   0  0
    7.1247   -9.9144    0.5691 H   0  0
    5.1537  -11.3270    0.7659 H   0  0
   10.2082  -19.0617    0.2977 H   0  0
    0.0661  -15.3184    1.2104 H   0  0
   -0.1342  -14.6226   -0.4160 H   0  0
   -2.2295  -15.7496    0.3816 H   0  0
   -1.5723  -16.5278   -1.0786 H   0  0
   -1.1496  -17.4928    1.7962 H   0  0
   -2.2529  -18.2288    0.6086 H   0  0
   -0.1010  -19.4758    0.6982 H   0  0
   -0.3149  -18.7038   -0.8917 H   0  0
    2.0078  -18.3494   -0.0744 H   0  0
    1.3826  -17.6101    1.4196 H   0  0
   10.8442  -12.4858    0.6084 H   0  0
   10.7324  -12.1714   -1.1403 H   0  0
   13.2665  -12.7512   -0.2512 H   0  0
   15.5031  -11.5203   -0.1552 H   0  0
   15.5446   -9.1048    0.0346 H   0  0
   13.3524   -7.7941    0.1392 H   0  0
   11.2336   -8.9649    0.0531 H   0  0
   12.3589  -19.9340    0.1981 H   0  0
   14.8953  -19.6716    0.1316 H   0  0
   14.4038  -15.3966   -0.0572 H   0  0
   11.9973  -15.6338   -0.0039 H   0  0
   16.8898  -19.1191    0.9025 H   0  0
  1  2  1  0
  2  3  1  0
  2  4  2  0
  5  3  1  0
  5  6  1  0
  5  7  1  0
  7  8  1  0
  6  9  1  0
  9 10  1  0
 10 11  2  0
 11 12  1  0
 12  6  2  0
  8 13  2  0
 13 14  1  0
 14 15  2  0
 15 16  1  0
 16 17  2  0
 17  8  1  0
 11 18  1  0
 18 19  1  0
 19 20  1  0
  1 21  1  0
  1 25  1  0
 21 22  1  0
 22 23  1  0
 23 24  1  0
 24 25  1  0
 15 26  1  0
 26 27  1  0
 27 28  1  0
 28 29  2  0
 29 30  1  0
 30 31  2  0
 31 32  1  0
 32 33  2  0
 33 28  1  0
 18 34  2  0
 20 35  2  0
 35 36  1  0
 36 37  2  0
 37 38  1  0
 38 39  2  0
 39 20  1  0
 37 40  1  0
 40 41  1  0
 40 42  2  0
  1 43  1  0
  3 44  1  0
  5 45  1  0
  7 46  1  0
  7 47  1  0
 10 48  1  0
 13 49  1  0
 14 50  1  0
 16 51  1  0
 17 52  1  0
 19 53  1  0
 21 54  1  0
 21 55  1  0
 22 56  1  0
 22 57  1  0
 23 58  1  0
 23 59  1  0
 24 60  1  0
 24 61  1  0
 25 62  1  0
 25 63  1  0
 27 64  1  0
 27 65  1  0
 29 66  1  0
 30 67  1  0
 31 68  1  0
 32 69  1  0
 33 70  1  0
 35 71  1  0
 36 72  1  0
 38 73  1  0
 39 74  1  0
 41 75  1  0
M  END
> <Name>
Molecule

> <Clean Energy>
53.701

> <From>
www.bindingDB.org

> <BindingDB Reactant_set_id>
51080375

> <Ligand InChI>
InChI=1S/C33H33N3O5S/c37-30(24-9-5-2-6-10-24)35-28(19-22-11-17-27(18-12-22)41-20-23-7-3-1-4-8-23)32-36-29(21-42-32)31(38)34-26-15-13-25(14-16-26)33(39)40/h1,3-4,7-8,11-18,21,24,28H,2,5-6,9-10,19-20H2,
(H,34,38)(H,35,37)(H,39,40)/t28-/m0/s1

> <Ligand InChI Key>
CUHDBPAZECNDLA-NDEPHWFRSA-N

> <BindingDB MonomerID>
50441791

> <BindingDB Ligand Name>
CHEMBL2436028

> <Target Name>
Tyrosine-protein phosphatase non-receptor type 1

> <Target Source Organism According to Curator or DataSource>
Homo sapiens

> <IC50 (nM)>
4880

> <Curation/DataSource>
ChEMBL

> <Article DOI>
10.1016/j.ejmech.2013.09.017

> <BindingDB Entry DOI>
10.7270/Q2VM4DP1

> <PMID>
24090912

> <Authors>
Chen, YT; Tang, CL; Ma, WP; Gao, LX; Wei, Y; Zhang, W; Li, JY; Li, J; Nan, FJ

> <Institution>
Chinese Academy of Sciences

> <Link to Ligand in BindingDB>
http://www.bindingdb.org/bind/chemsearch/marvin/MolStructure.jsp?monomerid=50441791

> <Link to Ligand-Target Pair in BindingDB>
http://www.bindingdb.org/jsp/dbsearch/PrimarySearch_ki.jsp?energyterm=kJ/mole&tag=pol&polymerid=2622&target=Tyrosine-protein+phosphatase+non-receptor+type+1&column=ki&startPg=0&Increment=50&submit=Sea
rch
http://www.bindingdb.org/jsp/dbsearch/PrimarySearch_ki.jsp?energyterm=kJ/mole&tag=r21&monomerid=50441791&enzyme=Tyrosine-protein+phosphatase+non-receptor+type+1&column=ki&startPg=0&Increment=50&submit
=Search

> <PubChem CID of Ligand>
73347905

> <PubChem SID of Ligand>
175454108

> <ChEMBL ID of Ligand>
CHEMBL2436028

> <ZINC ID of Ligand>
ZINC96285498

> <Number of Protein Chains in Target (bigger than 1 implies a multichain complex)>
1

> <BindingDB Target Chain Sequence>
MEMEKEFEQIDKSGSWAAIYQDIRHEASDFPCRVAKLPKNKNRNRYRDVSPFDHSRIKLHQEDNDYINASLIKMEEAQRSYILTQGPLPNTCGHFWEMVWEQKSRGVVMLNRVMEKGSLKCAQYWPQKEEKEMIFEDTNLKLTLISEDIKSYYTVRQLELENLTTQETREILHFHYTTWPDFGVPESPASFLNFLFKVRE
SGSLSPEHGPVVVHCSAGIGRSGTFCLADTCLLLMDKRKDPSSVDIKKVLLEMRKFRMGLIQTADQLRFSYLAVIEGAKFIMGDSSVQDQWKELSHEDLEPPPEHIPPPPRPPKRILEPHNGKCREFFPNHQWVKEETQEDKDCPIKEEKGSPLNAAPYGIESMSQDTEVRSRVVGGSLRGAQAASPAKGEPSLPEKDED
HALSYWKPFLVNMCVATVLTAGAYLCYRFLFNSNT

> <PDB ID(s) of Target Chain>
1BZJ,1G7G,1GFY,1JF7,1KAK,1KAV,1LQF,1NL9,1NNY,1NO6,1NZ7,1OEM,1OEO,1OES,1OET,1OEU,1OEV,1ONY,1ONZ,1PH0,1PXH,1PYN,1Q1M,1Q6J,1Q6M,1Q6N,1Q6P,1Q6S,1Q6T,1QXK,1SUG,1T48,1T49,1T4J,1WAX,1XBO,2AZR,2B07,2BGD,2BGE,
2CM2,2CM3,2CM7,2CM8,2CMA,2CMB,2CMC,2CNE,2CNF,2CNG,2CNH,2CNI,2F6T,2F6V,2F6W,2F6Y,2F6Z,2F70,2F71,2FJN,2H4G,2H4K,2HB1,2HNP,2HNQ,2QBP,2QBQ,2QBR,2QBS,2VEU,2VEV,2VEW,2VEX,2VEY,2ZMM,2ZN7,3A5J,3CWE,3D9C,3EAX,
3EB1,3EU0,3I7Z,3I80,3SME,4BJO,4I8N,4QBW,4Y14,5K9V,5K9W,5KA0,5KA1,5T19,6B90,6NTP,6W30,7KEY,7KLX,7LFO,7MN9,7MNA,8DU7,8G65,8G67,8G68,8G69,8G6A,8SKL

> <UniProt (SwissProt) Recommended Name of Target Chain>
Tyrosine-protein phosphatase non-receptor type 1

> <UniProt (SwissProt) Entry Name of Target Chain>
PTN1_HUMAN

> <UniProt (SwissProt) Primary ID of Target Chain>
P18031

> <UniProt (SwissProt) Secondary ID(s) of Target Chain>
Q5TGD8 Q9BQV9 Q9NQQ4

$$$$
Molecule
  SciTegic10242319433D

 57 61  0  0  0  0            999 V2000
   -7.8770    2.0385   -0.0084 C   0  0
   -8.0024    0.7160    0.0050 C   0  0
   -6.8160   -0.1420    0.0115 C   0  0
   -5.5852    0.4073    0.0030 C   0  0
   -5.4608    1.8691   -0.0121 C   0  0
   -6.5465    2.6413   -0.0173 C   0  0
   -4.3719   -0.4742    0.0101 C   0  0
   -4.4292   -1.7495    0.0364 N   0  0
   -3.1697   -2.2209    0.0345 N   0  0
   -2.2654   -1.2257    0.0060 C   0  0
   -2.9263   -0.0875   -0.0112 C   0  0
   -2.2361    1.2700   -0.0570 C   0  0
   -0.8826    1.3494   -0.0607 C   0  0
    0.1727    0.0543   -0.0137 S   0  0
    1.6353    0.7860   -0.0640 C   0  0
    1.4476    2.2547   -0.1007 N   0  0
   -0.0322    2.5797   -0.1164 C   0  0
   -0.5109    3.7161   -0.1835 O   0  0
    2.9473   -0.0701   -0.1688 S   0  0
    2.5934    3.2653   -0.1784 C   0  0  2  0  0  0
    3.9400    2.6093    0.2965 C   0  0
    2.2868    4.5718    0.5772 C   0  0
    5.2713    3.3087    0.0865 C   0  0
    6.3657    2.6729    0.5070 C   0  0
    7.6887    3.2587    0.3195 C   0  0
    7.8092    4.4381   -0.2837 C   0  0
    6.6125    5.1429   -0.7591 C   0  0
    5.4037    4.6065   -0.5873 C   0  0
    3.2597    5.1642    1.3752 O   0  0
    1.2013    5.1435    0.4538 O   0  0
   -2.7719   -3.5422    0.0306 C   0  0
   -3.6567   -4.5349    0.0355 C   0  0
   -3.1790   -5.9229    0.0255 C   0  0
   -1.8713   -6.1852    0.0104 C   0  0
   -0.9033   -5.0909    0.0049 C   0  0
   -1.3333   -3.8338    0.0147 C   0  0
   -7.0495   -1.8598    0.0285 Cl  0  0
   -8.7641    2.6718   -0.0127 H   0  0
   -8.9954    0.2666    0.0113 H   0  0
   -4.4718    2.3272   -0.0192 H   0  0
   -6.4416    3.7262   -0.0283 H   0  0
   -1.1815   -1.3408   -0.0015 H   0  0
   -2.8332    2.1815   -0.0870 H   0  0
    2.7185    3.5260   -1.2294 H   0  0
    3.8425    2.4459    1.3698 H   0  0
    4.0121    1.6482   -0.2127 H   0  0
    6.2705    1.7038    0.9968 H   0  0
    8.5752    2.7317    0.6725 H   0  0
    8.7953    4.8806   -0.4248 H   0  0
    6.7123    6.1087   -1.2545 H   0  0
    4.5172    5.1295   -0.9459 H   0  0
    3.5452    4.4966    2.1337 H   0  0
   -4.7253   -4.3202    0.0468 H   0  0
   -3.8965   -6.7434    0.0303 H   0  0
   -1.5240   -7.2184    0.0023 H   0  0
    0.1655   -5.3045   -0.0072 H   0  0
   -0.6141   -3.0148    0.0109 H   0  0
  4  5  1  0
 17 18  2  0
  2  3  1  0
 15 19  2  0
  8  9  1  0
 16 20  1  0
  9 10  1  0
 20 21  1  0
 10 11  2  0
 20 22  1  0
 11  7  1  0
 21 23  1  0
  4  7  1  0
 23 24  2  0
  5  6  2  0
 24 25  1  0
 11 12  1  0
 25 26  2  0
  6  1  1  0
 26 27  1  0
 12 13  2  0
 27 28  2  0
 28 23  1  0
 13 14  1  0
  7  8  2  0
 22 29  1  0
 22 30  2  0
  1  2  2  0
  3  4  2  0
 31 32  2  0
 32 33  1  0
 14 15  1  0
 33 34  2  0
 15 16  1  0
 34 35  1  0
 16 17  1  0
 35 36  2  0
 36 31  1  0
  9 31  1  0
 17 13  1  0
  3 37  1  0
  1 38  1  0
  2 39  1  0
  5 40  1  0
  6 41  1  0
 10 42  1  0
 12 43  1  0
 20 44  1  0
 21 45  1  0
 21 46  1  0
 24 47  1  0
 25 48  1  0
 26 49  1  0
 27 50  1  0
 28 51  1  0
 29 52  1  0
 32 53  1  0
 33 54  1  0
 34 55  1  0
 35 56  1  0
 36 57  1  0
M  END
> <Name>
Molecule

> <Clean Energy>
76.8007

> <From>
www.bindingDB.org

> <BindingDB Reactant_set_id>
51233074

> <Ligand InChI>
InChI=1S/C28H20ClN3O3S2/c29-22-14-8-7-13-21(22)25-19(17-31(30-25)20-11-5-2-6-12-20)16-24-26(33)32(28(36)37-24)23(27(34)35)15-18-9-3-1-4-10-18/h1-14,16-17,23H,15H2,(H,34,35)/b24-16-/t23-/m1/s1

> <Ligand InChI Key>
BVFOKZIXCCCZCJ-KDYMBEQYSA-N

> <BindingDB MonomerID>
50505222

> <BindingDB Ligand Name>
CHEMBL2153203

> <Target Name>
Tyrosine-protein phosphatase non-receptor type 1

> <Target Source Organism According to Curator or DataSource>
Homo sapiens

> <IC50 (nM)>
4890

> <Curation/DataSource>
ChEMBL

> <Article DOI>
10.1016/j.bmcl.2019.03.023

> <BindingDB Entry DOI>
10.7270/Q2CR5XN6

> <PMID>
30910462

> <Authors>
Sun, L; Wang, P; Xu, L; Gao, L; Li, J; Piao, H

> <Institution>
Yanbian University

> <Link to Ligand in BindingDB>
http://www.bindingdb.org/bind/chemsearch/marvin/MolStructure.jsp?monomerid=50505222

> <Link to Ligand-Target Pair in BindingDB>
http://www.bindingdb.org/jsp/dbsearch/PrimarySearch_ki.jsp?energyterm=kJ/mole&tag=pol&polymerid=2622&target=Tyrosine-protein+phosphatase+non-receptor+type+1&column=ki&startPg=0&Increment=50&submit=Sea
rch
http://www.bindingdb.org/jsp/dbsearch/PrimarySearch_ki.jsp?energyterm=kJ/mole&tag=r21&monomerid=50505222&enzyme=Tyrosine-protein+phosphatase+non-receptor+type+1&column=ki&startPg=0&Increment=50&submit
=Search

> <PubChem CID of Ligand>
71451291

> <PubChem SID of Ligand>
440713807

> <Number of Protein Chains in Target (bigger than 1 implies a multichain complex)>
1

> <BindingDB Target Chain Sequence>
MEMEKEFEQIDKSGSWAAIYQDIRHEASDFPCRVAKLPKNKNRNRYRDVSPFDHSRIKLHQEDNDYINASLIKMEEAQRSYILTQGPLPNTCGHFWEMVWEQKSRGVVMLNRVMEKGSLKCAQYWPQKEEKEMIFEDTNLKLTLISEDIKSYYTVRQLELENLTTQETREILHFHYTTWPDFGVPESPASFLNFLFKVRE
SGSLSPEHGPVVVHCSAGIGRSGTFCLADTCLLLMDKRKDPSSVDIKKVLLEMRKFRMGLIQTADQLRFSYLAVIEGAKFIMGDSSVQDQWKELSHEDLEPPPEHIPPPPRPPKRILEPHNGKCREFFPNHQWVKEETQEDKDCPIKEEKGSPLNAAPYGIESMSQDTEVRSRVVGGSLRGAQAASPAKGEPSLPEKDED
HALSYWKPFLVNMCVATVLTAGAYLCYRFLFNSNT

> <PDB ID(s) of Target Chain>
1BZJ,1G7G,1GFY,1JF7,1KAK,1KAV,1LQF,1NL9,1NNY,1NO6,1NZ7,1OEM,1OEO,1OES,1OET,1OEU,1OEV,1ONY,1ONZ,1PH0,1PXH,1PYN,1Q1M,1Q6J,1Q6M,1Q6N,1Q6P,1Q6S,1Q6T,1QXK,1SUG,1T48,1T49,1T4J,1WAX,1XBO,2AZR,2B07,2BGD,2BGE,
2CM2,2CM3,2CM7,2CM8,2CMA,2CMB,2CMC,2CNE,2CNF,2CNG,2CNH,2CNI,2F6T,2F6V,2F6W,2F6Y,2F6Z,2F70,2F71,2FJN,2H4G,2H4K,2HB1,2HNP,2HNQ,2QBP,2QBQ,2QBR,2QBS,2VEU,2VEV,2VEW,2VEX,2VEY,2ZMM,2ZN7,3A5J,3CWE,3D9C,3EAX,
3EB1,3EU0,3I7Z,3I80,3SME,4BJO,4I8N,4QBW,4Y14,5K9V,5K9W,5KA0,5KA1,5T19,6B90,6NTP,6W30,7KEY,7KLX,7LFO,7MN9,7MNA,8DU7,8G65,8G67,8G68,8G69,8G6A,8SKL

> <UniProt (SwissProt) Recommended Name of Target Chain>
Tyrosine-protein phosphatase non-receptor type 1

> <UniProt (SwissProt) Entry Name of Target Chain>
PTN1_HUMAN

> <UniProt (SwissProt) Primary ID of Target Chain>
P18031

> <UniProt (SwissProt) Secondary ID(s) of Target Chain>
Q5TGD8 Q9BQV9 Q9NQQ4

$$$$
Molecule
  SciTegic10242319433D

 37 39  0  0  0  0            999 V2000
    1.3094  -11.4920   -0.2487 C   0  0
    2.3671  -10.0002   -0.0631 C   0  0
   -0.2154  -10.9936    0.1797 C   0  0
    1.5494  -12.8967    0.3762 O   0  0
    2.8880  -13.6680   -0.1265 C   0  0
    2.8053  -10.8980    0.0557 C   0  0
    4.3093  -11.5483   -0.0261 C   0  0
    4.3495  -12.9480   -0.0566 C   0  0
    5.4995  -13.6077   -0.0563 N   0  0
    6.8312  -12.9849   -0.0183 N   0  0
    6.8200  -11.5300   -0.0230 C   0  0
    5.4902  -10.8041   -0.0161 C   0  0
    8.2306  -13.8376   -0.0050 C   0  0
    8.2628  -15.1884   -0.0047 C   0  0
    9.5951  -15.9718   -0.0008 C   0  0
   10.7739  -15.3388    0.0010 C   0  0
   10.7686  -13.8676    0.0024 C   0  0
    9.6104  -13.1675    0.0004 C   0  0
    5.5001   -9.2687    0.0052 C   0  0
    5.5128   -8.1087    0.0285 N   0  0
    7.9022  -10.8565   -0.0056 N   0  0
   11.9647  -16.0418    0.0012 F   0  0
    3.3949  -10.2476   -0.3285 H   0  0
    2.3323   -9.6558    0.9705 H   0  0
    2.0023   -9.2114   -0.7210 H   0  0
   -0.9088  -11.8302    0.0951 H   0  0
   -0.5348  -10.1892   -0.4830 H   0  0
   -0.2049  -10.6336    1.2085 H   0  0
    2.9626  -14.5783    0.4684 H   0  0
    2.7211  -13.9290   -1.1715 H   0  0
    2.8704  -10.0337   -0.6052 H   0  0
    2.7347  -10.5608    1.0898 H   0  0
    7.3232  -15.7408   -0.0073 H   0  0
    9.5739  -17.0616    0.0006 H   0  0
   11.7171  -13.3304    0.0050 H   0  0
    9.6603  -12.0787    0.0027 H   0  0
    7.8670   -9.7871   -0.0096 H   0  0
  2  1  1  0
  1  3  1  0
  1  4  1  0
  1  6  1  0
  4  5  1  0
  5  8  1  0
  7  6  1  0
  7  8  1  0
  7 12  2  0
  8  9  2  0
  9 10  1  0
 10 11  1  0
 11 12  1  0
 13 14  2  0
 13 18  1  0
 14 15  1  0
 15 16  2  0
 16 17  1  0
 17 18  2  0
 10 13  1  0
 19 20  3  0
 12 19  1  0
 11 21  2  0
 16 22  1  0
  2 23  1  0
  2 24  1  0
  2 25  1  0
  3 26  1  0
  3 27  1  0
  3 28  1  0
  5 29  1  0
  5 30  1  0
  6 31  1  0
  6 32  1  0
 14 33  1  0
 15 34  1  0
 17 35  1  0
 18 36  1  0
 21 37  1  0
M  END
> <Name>
Molecule

> <Clean Energy>
189.777

> <From>
www.bindingDB.org

> <BindingDB Reactant_set_id>
51075633

> <Ligand InChI>
InChI=1S/C16H15FN4O/c1-16(2)7-12-13(8-18)15(19)21(20-14(12)9-22-16)11-5-3-10(17)4-6-11/h3-6,19H,7,9H2,1-2H3

> <Ligand InChI Key>
JFBIOMFHSZPZHQ-UHFFFAOYSA-N

> <BindingDB MonomerID>
50439982

> <BindingDB Ligand Name>
CHEMBL2424698

> <Target Name>
Tyrosine-protein phosphatase non-receptor type 1

> <Target Source Organism According to Curator or DataSource>
Homo sapiens

> <IC50 (nM)>
4898

> <Curation/DataSource>
ChEMBL

> <Article DOI>
10.1007/s00044-013-0797-8

> <BindingDB Entry DOI>
10.7270/Q2MP54Q2

> <Authors>
n/a

> <Institution>
n/a

> <Link to Ligand in BindingDB>
http://www.bindingdb.org/bind/chemsearch/marvin/MolStructure.jsp?monomerid=50439982

> <Link to Ligand-Target Pair in BindingDB>
http://www.bindingdb.org/jsp/dbsearch/PrimarySearch_ki.jsp?energyterm=kJ/mole&tag=pol&polymerid=2622&target=Tyrosine-protein+phosphatase+non-receptor+type+1&column=ki&startPg=0&Increment=50&submit=Sea
rch
http://www.bindingdb.org/jsp/dbsearch/PrimarySearch_ki.jsp?energyterm=kJ/mole&tag=r21&monomerid=50439982&enzyme=Tyrosine-protein+phosphatase+non-receptor+type+1&column=ki&startPg=0&Increment=50&submit
=Search

> <PubChem CID of Ligand>
90800931

> <PubChem SID of Ligand>
175452299

> <ChEMBL ID of Ligand>
CHEMBL2424698

> <ZINC ID of Ligand>
ZINC13838717

> <Number of Protein Chains in Target (bigger than 1 implies a multichain complex)>
1

> <BindingDB Target Chain Sequence>
MEMEKEFEQIDKSGSWAAIYQDIRHEASDFPCRVAKLPKNKNRNRYRDVSPFDHSRIKLHQEDNDYINASLIKMEEAQRSYILTQGPLPNTCGHFWEMVWEQKSRGVVMLNRVMEKGSLKCAQYWPQKEEKEMIFEDTNLKLTLISEDIKSYYTVRQLELENLTTQETREILHFHYTTWPDFGVPESPASFLNFLFKVRE
SGSLSPEHGPVVVHCSAGIGRSGTFCLADTCLLLMDKRKDPSSVDIKKVLLEMRKFRMGLIQTADQLRFSYLAVIEGAKFIMGDSSVQDQWKELSHEDLEPPPEHIPPPPRPPKRILEPHNGKCREFFPNHQWVKEETQEDKDCPIKEEKGSPLNAAPYGIESMSQDTEVRSRVVGGSLRGAQAASPAKGEPSLPEKDED
HALSYWKPFLVNMCVATVLTAGAYLCYRFLFNSNT

> <PDB ID(s) of Target Chain>
1BZJ,1G7G,1GFY,1JF7,1KAK,1KAV,1LQF,1NL9,1NNY,1NO6,1NZ7,1OEM,1OEO,1OES,1OET,1OEU,1OEV,1ONY,1ONZ,1PH0,1PXH,1PYN,1Q1M,1Q6J,1Q6M,1Q6N,1Q6P,1Q6S,1Q6T,1QXK,1SUG,1T48,1T49,1T4J,1WAX,1XBO,2AZR,2B07,2BGD,2BGE,
2CM2,2CM3,2CM7,2CM8,2CMA,2CMB,2CMC,2CNE,2CNF,2CNG,2CNH,2CNI,2F6T,2F6V,2F6W,2F6Y,2F6Z,2F70,2F71,2FJN,2H4G,2H4K,2HB1,2HNP,2HNQ,2QBP,2QBQ,2QBR,2QBS,2VEU,2VEV,2VEW,2VEX,2VEY,2ZMM,2ZN7,3A5J,3CWE,3D9C,3EAX,
3EB1,3EU0,3I7Z,3I80,3SME,4BJO,4I8N,4QBW,4Y14,5K9V,5K9W,5KA0,5KA1,5T19,6B90,6NTP,6W30,7KEY,7KLX,7LFO,7MN9,7MNA,8DU7,8G65,8G67,8G68,8G69,8G6A,8SKL

> <UniProt (SwissProt) Recommended Name of Target Chain>
Tyrosine-protein phosphatase non-receptor type 1

> <UniProt (SwissProt) Entry Name of Target Chain>
PTN1_HUMAN

> <UniProt (SwissProt) Primary ID of Target Chain>
P18031

> <UniProt (SwissProt) Secondary ID(s) of Target Chain>
Q5TGD8 Q9BQV9 Q9NQQ4

$$$$
Molecule
  SciTegic10242319433D

 48 52  0  0  0  0            999 V2000
   47.1035   -4.6556    1.3366 O   0  0
   47.4050   -3.8957    0.0591 S   0  0
   47.0070   -4.7790   -1.1078 O   0  0
   33.5109   -1.8862   -1.3620 O   0  0
   33.5657   -2.6929   -0.0785 S   0  0
   33.5391   -1.7105    1.0772 O   0  0
   36.3306   -1.6181   -0.0353 C   0  0
   36.2857   -2.9587   -0.0264 C   0  0
   37.5669   -3.7372   -0.0120 C   0  0
   37.6325   -0.9122   -0.0294 C   0  0
   35.0231   -3.6212   -0.0324 N   0  0
   32.0910   -3.6922    0.0147 C   0  0
   38.7283   -1.6555   -0.0164 C   0  0
   38.7063   -3.0355   -0.0083 C   0  0
   40.0281   -3.4954    0.0028 N   0  0
   40.7721   -2.4338    0.0016 C   0  0
   40.0109   -1.2576   -0.0095 O   0  0
   42.2595   -2.4498    0.0098 C   0  0
   42.9319   -3.5981    0.0202 C   0  0
   44.4118   -3.5957    0.0271 C   0  0
   45.0836   -2.4416    0.0219 C   0  0
   44.3382   -1.1752    0.0107 C   0  0
   43.0022   -1.1771    0.0053 C   0  0
   46.5063   -2.4293    0.0277 N   0  0
   49.1631   -3.6098   -0.0243 C   0  0
   30.5356   -3.0830   -0.0208 S   0  0
   29.7097   -4.5217    0.1062 C   0  0
   30.5868   -5.5329    0.1812 C   0  0
   32.0419   -5.0271    0.1257 C   0  0
   27.9860   -4.6830    0.1367 Cl  0  0
   50.3190   -4.8033   -0.0642 S   0  0
   51.6997   -3.8548   -0.1377 C   0  0
   51.2937   -2.5726   -0.1330 C   0  0
   49.7668   -2.4194   -0.0648 C   0  0
   35.4036   -1.0450   -0.0470 H   0  0
   37.5701   -4.8272   -0.0048 H   0  0
   37.6865    0.1764   -0.0354 H   0  0
   34.9779   -4.6900   -0.0085 H   0  0
   42.3906   -4.5442    0.0235 H   0  0
   44.9558   -4.5401    0.0364 H   0  0
   44.8786   -0.2286    0.0067 H   0  0
   42.4587   -0.2322   -0.0026 H   0  0
   47.0252   -1.4937    0.0123 H   0  0
   30.3059   -6.5823    0.2704 H   0  0
   32.9190   -5.6726    0.1710 H   0  0
   52.7294   -4.2096   -0.1810 H   0  0
   51.9798   -1.7265   -0.1736 H   0  0
   49.2439   -1.4631   -0.0513 H   0  0
  2  1  2  0
  3  2  2  0
  5  4  2  0
  6  5  2  0
  7  8  2  0
  8  9  1  0
  9 14  2  0
 13 10  2  0
 10  7  1  0
  8 11  1  0
 11  5  1  0
  5 12  1  0
 13 14  1  0
 14 15  1  0
 15 16  2  0
 16 17  1  0
 17 13  1  0
 16 18  1  0
 18 19  2  0
 19 20  1  0
 20 21  2  0
 21 22  1  0
 22 23  2  0
 23 18  1  0
 21 24  1  0
 24  2  1  0
  2 25  1  0
 12 26  1  0
 26 27  1  0
 27 28  2  0
 28 29  1  0
 29 12  2  0
 27 30  1  0
 25 31  1  0
 31 32  1  0
 32 33  2  0
 33 34  1  0
 34 25  2  0
  7 35  1  0
  9 36  1  0
 10 37  1  0
 11 38  1  0
 19 39  1  0
 20 40  1  0
 22 41  1  0
 23 42  1  0
 24 43  1  0
 28 44  1  0
 29 45  1  0
 32 46  1  0
 33 47  1  0
 34 48  1  0
M  END
> <Name>
Molecule

> <Clean Energy>
74.0798

> <From>
www.bindingDB.org

> <BindingDB Reactant_set_id>
51280809

> <Ligand InChI>
InChI=1S/C21H14ClN3O5S4/c22-18-9-10-20(32-18)34(28,29)25-15-7-8-17-16(12-15)23-21(30-17)13-3-5-14(6-4-13)24-33(26,27)19-2-1-11-31-19/h1-12,24-25H

> <Ligand InChI Key>
JMOKHAIQULTLPN-UHFFFAOYSA-N

> <BindingDB MonomerID>
50522564

> <BindingDB Ligand Name>
CHEMBL4446055

> <Target Name>
Tyrosine-protein phosphatase non-receptor type 1

> <Target Source Organism According to Curator or DataSource>
Homo sapiens

> <IC50 (nM)>
4900

> <Curation/DataSource>
ChEMBL

> <Article DOI>
10.1016/j.bmcl.2019.04.034

> <BindingDB Entry DOI>
10.7270/Q2MG7SWV

> <PMID>
31047750

> <Authors>
Washburn, A; Abdeen, S; Ovechkina, Y; Ray, AM; Stevens, M; Chitre, S; Sivinski, J; Park, Y; Johnson, J; Hoang, QQ; Chapman, E; Parish, T; Johnson, SM

> <Institution>
Indiana University School of Medicine

> <Link to Ligand in BindingDB>
http://www.bindingdb.org/bind/chemsearch/marvin/MolStructure.jsp?monomerid=50522564

> <Link to Ligand-Target Pair in BindingDB>
http://www.bindingdb.org/jsp/dbsearch/PrimarySearch_ki.jsp?energyterm=kJ/mole&tag=pol&polymerid=2622&target=Tyrosine-protein+phosphatase+non-receptor+type+1&column=ki&startPg=0&Increment=50&submit=Sea
rch
http://www.bindingdb.org/jsp/dbsearch/PrimarySearch_ki.jsp?energyterm=kJ/mole&tag=r21&monomerid=50522564&enzyme=Tyrosine-protein+phosphatase+non-receptor+type+1&column=ki&startPg=0&Increment=50&submit
=Search

> <PubChem CID of Ligand>
155518216

> <PubChem SID of Ligand>
440731146

> <Number of Protein Chains in Target (bigger than 1 implies a multichain complex)>
1

> <BindingDB Target Chain Sequence>
MEMEKEFEQIDKSGSWAAIYQDIRHEASDFPCRVAKLPKNKNRNRYRDVSPFDHSRIKLHQEDNDYINASLIKMEEAQRSYILTQGPLPNTCGHFWEMVWEQKSRGVVMLNRVMEKGSLKCAQYWPQKEEKEMIFEDTNLKLTLISEDIKSYYTVRQLELENLTTQETREILHFHYTTWPDFGVPESPASFLNFLFKVRE
SGSLSPEHGPVVVHCSAGIGRSGTFCLADTCLLLMDKRKDPSSVDIKKVLLEMRKFRMGLIQTADQLRFSYLAVIEGAKFIMGDSSVQDQWKELSHEDLEPPPEHIPPPPRPPKRILEPHNGKCREFFPNHQWVKEETQEDKDCPIKEEKGSPLNAAPYGIESMSQDTEVRSRVVGGSLRGAQAASPAKGEPSLPEKDED
HALSYWKPFLVNMCVATVLTAGAYLCYRFLFNSNT

> <PDB ID(s) of Target Chain>
1BZJ,1G7G,1GFY,1JF7,1KAK,1KAV,1LQF,1NL9,1NNY,1NO6,1NZ7,1OEM,1OEO,1OES,1OET,1OEU,1OEV,1ONY,1ONZ,1PH0,1PXH,1PYN,1Q1M,1Q6J,1Q6M,1Q6N,1Q6P,1Q6S,1Q6T,1QXK,1SUG,1T48,1T49,1T4J,1WAX,1XBO,2AZR,2B07,2BGD,2BGE,
2CM2,2CM3,2CM7,2CM8,2CMA,2CMB,2CMC,2CNE,2CNF,2CNG,2CNH,2CNI,2F6T,2F6V,2F6W,2F6Y,2F6Z,2F70,2F71,2FJN,2H4G,2H4K,2HB1,2HNP,2HNQ,2QBP,2QBQ,2QBR,2QBS,2VEU,2VEV,2VEW,2VEX,2VEY,2ZMM,2ZN7,3A5J,3CWE,3D9C,3EAX,
3EB1,3EU0,3I7Z,3I80,3SME,4BJO,4I8N,4QBW,4Y14,5K9V,5K9W,5KA0,5KA1,5T19,6B90,6NTP,6W30,7KEY,7KLX,7LFO,7MN9,7MNA,8DU7,8G65,8G67,8G68,8G69,8G6A,8SKL

> <UniProt (SwissProt) Recommended Name of Target Chain>
Tyrosine-protein phosphatase non-receptor type 1

> <UniProt (SwissProt) Entry Name of Target Chain>
PTN1_HUMAN

> <UniProt (SwissProt) Primary ID of Target Chain>
P18031

> <UniProt (SwissProt) Secondary ID(s) of Target Chain>
Q5TGD8 Q9BQV9 Q9NQQ4

$$$$
Molecule
  SciTegic10242319433D

 48 50  0  0  0  0            999 V2000
    4.9704   -7.9758   -0.0029 C   0  0
    6.2073   -8.7653   -0.0086 C   0  0
    7.4009   -8.1711   -0.0029 C   0  0
    5.0198   -6.7409    0.0095 O   0  0
    3.6757   -8.6637   -0.0021 C   0  0
    2.5358   -7.9694    0.0197 C   0  0
    1.2436   -8.6815    0.0245 C   0  0
    1.2241  -10.0138    0.0059 C   0  0
    2.4752  -10.7689   -0.0201 C   0  0
    3.6409  -10.1271   -0.0228 C   0  0
    0.0291   -7.9693    0.0550 N   0  0
    0.0611   -6.5147    0.1666 C   0  0
   -1.2382   -5.8366   -0.3186 C   0  0
   -2.4560   -6.5402    0.2749 C   0  0
   -2.4562   -7.9436   -0.3203 C   0  0
   -1.2202   -8.7231    0.1669 C   0  0
    8.7054   -8.9159   -0.0032 C   0  0
    8.7949  -10.2600   -0.0042 C   0  0
   10.1275  -10.8959   -0.0033 C   0  0
   11.2336  -10.1576   -0.0023 C   0  0
   11.1371   -8.7063   -0.0015 C   0  0
    9.9426   -8.1175   -0.0023 C   0  0
    7.6501  -11.0794   -0.0043 O   0  0
    8.0015  -12.4709   -0.0041 C   0  0
   12.4816  -10.7728   -0.0015 O   0  0
   12.7195   -7.6528    0.0001 Br  0  0
    6.1495   -9.8538   -0.0178 H   0  0
    7.4319   -7.0815    0.0024 H   0  0
    2.5596   -6.8797    0.0337 H   0  0
    0.2710  -10.5427    0.0101 H   0  0
    2.4534  -11.8586   -0.0372 H   0  0
    4.5725  -10.6927   -0.0405 H   0  0
    0.2189   -6.2514    1.2125 H   0  0
    0.8912   -6.1400   -0.4322 H   0  0
   -1.2378   -4.7928   -0.0049 H   0  0
   -1.2869   -5.8897   -1.4062 H   0  0
   -2.3744   -6.5887    1.3607 H   0  0
   -3.3697   -6.0123    0.0019 H   0  0
   -3.3594   -8.4677   -0.0080 H   0  0
   -2.4333   -7.8742   -1.4078 H   0  0
   -1.3703   -8.9878    1.2135 H   0  0
   -1.1290   -9.6315   -0.4287 H   0  0
   10.2055  -11.9831   -0.0034 H   0  0
    9.8800   -7.0293   -0.0023 H   0  0
    7.0944  -13.0753   -0.0041 H   0  0
    8.5885  -12.6978    0.8859 H   0  0
    8.5887  -12.6980   -0.8938 H   0  0
   12.5766  -11.3719    0.8556 H   0  0
  1  2  1  0
  2  3  2  0
  1  4  2  0
  5  6  2  0
  6  7  1  0
  7  8  2  0
  8  9  1  0
  9 10  2  0
  5 10  1  0
 11 12  1  0
 12 13  1  0
 13 14  1  0
 14 15  1  0
 15 16  1  0
 11 16  1  0
  7 11  1  0
  1  5  1  0
 17 18  2  0
 18 19  1  0
 19 20  2  0
 20 21  1  0
 21 22  2  0
 17 22  1  0
 23 24  1  0
 18 23  1  0
 20 25  1  0
 21 26  1  0
  3 17  1  0
  2 27  1  0
  3 28  1  0
  6 29  1  0
  8 30  1  0
  9 31  1  0
 10 32  1  0
 12 33  1  0
 12 34  1  0
 13 35  1  0
 13 36  1  0
 14 37  1  0
 14 38  1  0
 15 39  1  0
 15 40  1  0
 16 41  1  0
 16 42  1  0
 19 43  1  0
 22 44  1  0
 24 45  1  0
 24 46  1  0
 24 47  1  0
 25 48  1  0
M  END
> <Name>
Molecule

> <Clean Energy>
2.93088

> <From>
www.bindingDB.org

> <BindingDB Reactant_set_id>
50641697

> <Ligand InChI>
InChI=1S/C21H22BrNO3/c1-26-21-14-20(25)18(22)13-16(21)8-9-19(24)15-6-5-7-17(12-15)23-10-3-2-4-11-23/h5-9,12-14,25H,2-4,10-11H2,1H3/b9-8+

> <Ligand InChI Key>
UKUVVYCALLVBMN-CMDGGOBGSA-N

> <BindingDB MonomerID>
50344595

> <BindingDB Ligand Name>
(E)-3-(5-Bromo-4-hydroxy-2-methoxyphenyl)-1-(3-(piperidin-1-yl)phenyl)prop-2-en-1-one::CHEMBL1778924

> <Target Name>
Tyrosine-protein phosphatase non-receptor type 1

> <Target Source Organism According to Curator or DataSource>
Homo sapiens

> <IC50 (nM)>
4900

> <Curation/DataSource>
ChEMBL

> <Article DOI>
10.1016/j.bmcl.2011.04.057

> <BindingDB Entry DOI>
10.7270/Q23J3D96

> <PMID>
21555221

> <Authors>
Liu, Z; Lee, W; Kim, SN; Yoon, G; Cheon, SH

> <Institution>
Chonnam National University

> <Link to Ligand in BindingDB>
http://www.bindingdb.org/bind/chemsearch/marvin/MolStructure.jsp?monomerid=50344595

> <Link to Ligand-Target Pair in BindingDB>
http://www.bindingdb.org/jsp/dbsearch/PrimarySearch_ki.jsp?energyterm=kJ/mole&tag=pol&polymerid=2622&target=Tyrosine-protein+phosphatase+non-receptor+type+1&column=ki&startPg=0&Increment=50&submit=Sea
rch
http://www.bindingdb.org/jsp/dbsearch/PrimarySearch_ki.jsp?energyterm=kJ/mole&tag=r21&monomerid=50344595&enzyme=Tyrosine-protein+phosphatase+non-receptor+type+1&column=ki&startPg=0&Increment=50&submit
=Search

> <PubChem CID of Ligand>
54581874

> <PubChem SID of Ligand>
131347531

> <ChEMBL ID of Ligand>
CHEMBL1778924

> <ZINC ID of Ligand>
ZINC71332047

> <Number of Protein Chains in Target (bigger than 1 implies a multichain complex)>
1

> <BindingDB Target Chain Sequence>
MEMEKEFEQIDKSGSWAAIYQDIRHEASDFPCRVAKLPKNKNRNRYRDVSPFDHSRIKLHQEDNDYINASLIKMEEAQRSYILTQGPLPNTCGHFWEMVWEQKSRGVVMLNRVMEKGSLKCAQYWPQKEEKEMIFEDTNLKLTLISEDIKSYYTVRQLELENLTTQETREILHFHYTTWPDFGVPESPASFLNFLFKVRE
SGSLSPEHGPVVVHCSAGIGRSGTFCLADTCLLLMDKRKDPSSVDIKKVLLEMRKFRMGLIQTADQLRFSYLAVIEGAKFIMGDSSVQDQWKELSHEDLEPPPEHIPPPPRPPKRILEPHNGKCREFFPNHQWVKEETQEDKDCPIKEEKGSPLNAAPYGIESMSQDTEVRSRVVGGSLRGAQAASPAKGEPSLPEKDED
HALSYWKPFLVNMCVATVLTAGAYLCYRFLFNSNT

> <PDB ID(s) of Target Chain>
1BZJ,1G7G,1GFY,1JF7,1KAK,1KAV,1LQF,1NL9,1NNY,1NO6,1NZ7,1OEM,1OEO,1OES,1OET,1OEU,1OEV,1ONY,1ONZ,1PH0,1PXH,1PYN,1Q1M,1Q6J,1Q6M,1Q6N,1Q6P,1Q6S,1Q6T,1QXK,1SUG,1T48,1T49,1T4J,1WAX,1XBO,2AZR,2B07,2BGD,2BGE,
2CM2,2CM3,2CM7,2CM8,2CMA,2CMB,2CMC,2CNE,2CNF,2CNG,2CNH,2CNI,2F6T,2F6V,2F6W,2F6Y,2F6Z,2F70,2F71,2FJN,2H4G,2H4K,2HB1,2HNP,2HNQ,2QBP,2QBQ,2QBR,2QBS,2VEU,2VEV,2VEW,2VEX,2VEY,2ZMM,2ZN7,3A5J,3CWE,3D9C,3EAX,
3EB1,3EU0,3I7Z,3I80,3SME,4BJO,4I8N,4QBW,4Y14,5K9V,5K9W,5KA0,5KA1,5T19,6B90,6NTP,6W30,7KEY,7KLX,7LFO,7MN9,7MNA,8DU7,8G65,8G67,8G68,8G69,8G6A,8SKL

> <UniProt (SwissProt) Recommended Name of Target Chain>
Tyrosine-protein phosphatase non-receptor type 1

> <UniProt (SwissProt) Entry Name of Target Chain>
PTN1_HUMAN

> <UniProt (SwissProt) Primary ID of Target Chain>
P18031

> <UniProt (SwissProt) Secondary ID(s) of Target Chain>
Q5TGD8 Q9BQV9 Q9NQQ4

$$$$
Molecule
  SciTegic10242319433D

 38 39  0  0  0  0            999 V2000
    6.6749  -13.6238    0.0001 N   0  0
    8.0177  -14.1091    0.0001 C   0  0
    9.0698  -12.8336    0.0001 S   0  0
    7.9656  -11.6008    0.0001 C   0  0
    6.6249  -12.2563    0.0001 C   0  0
    5.5618  -11.6261    0.0002 O   0  0
    8.3531  -15.2987    0.0001 O   0  0
    8.1682  -10.2671    0.0001 C   0  0
    9.4762   -9.4626    0.0001 C   0  0
   10.7685  -10.0057   -0.0001 C   0  0
   11.8739   -9.1653   -0.0001 C   0  0
   11.7351   -7.7857    0.0000 C   0  0
   10.4612   -7.2378    0.0002 C   0  0
    9.3474   -8.0740    0.0002 C   0  0
   11.0011  -11.3650   -0.0002 O   0  0
   12.4050  -11.6790   -0.0004 C   0  0
   12.8734   -6.9621    0.0000 O   0  0
   10.2464   -5.3487    0.0004 Br  0  0
   14.0684   -7.7697   -0.0002 C   0  0
   15.3199   -6.8793   -0.0003 C   0  0
   16.5762   -7.7724   -0.0005 C   0  0
   17.8357   -6.8874   -0.0006 C   0  0
    5.8105  -14.2544    0.0002 H   0  0
    7.2595   -9.6651    0.0001 H   0  0
   12.8735   -9.6000   -0.0002 H   0  0
    8.3509   -7.6324    0.0003 H   0  0
   12.5358  -12.7611   -0.0005 H   0  0
   12.8723  -11.2572    0.8895 H   0  0
   12.8721  -11.2570   -0.8903 H   0  0
   14.0761   -8.3988    0.8899 H   0  0
   14.0758   -8.3988   -0.8903 H   0  0
   15.3197   -6.2502   -0.8904 H   0  0
   15.3199   -6.2503    0.8899 H   0  0
   16.5745   -8.4015    0.8896 H   0  0
   16.5743   -8.4015   -0.8906 H   0  0
   18.7241   -7.5190   -0.0008 H   0  0
   17.8382   -6.2580    0.8893 H   0  0
   17.8380   -6.2579   -0.8905 H   0  0
  1  2  1  0
  2  3  1  0
  3  4  1  0
  4  5  1  0
  5  1  1  0
  5  6  2  0
  2  7  2  0
  4  8  2  0
  8  9  1  0
  9 10  4  0
 10 11  4  0
 11 12  4  0
 12 13  4  0
 13 14  4  0
 14  9  4  0
 10 15  1  0
 15 16  1  0
 12 17  1  0
 13 18  1  0
 17 19  1  0
 19 20  1  0
 20 21  1  0
 21 22  1  0
  1 23  1  0
  8 24  1  0
 11 25  1  0
 14 26  1  0
 16 27  1  0
 16 28  1  0
 16 29  1  0
 19 30  1  0
 19 31  1  0
 20 32  1  0
 20 33  1  0
 21 34  1  0
 21 35  1  0
 22 36  1  0
 22 37  1  0
 22 38  1  0
M  END
> <Name>
Molecule

> <Clean Energy>
28.094

> <From>
www.bindingDB.org

> <BindingDB Reactant_set_id>
50270596

> <Ligand InChI>
InChI=1S/C15H16BrNO4S/c1-3-4-5-21-12-8-11(20-2)9(6-10(12)16)7-13-14(18)17-15(19)22-13/h6-8H,3-5H2,1-2H3,(H,17,18,19)/b13-7-

> <Ligand InChI Key>
FECLMJSWPBCFQF-QPEQYQDCSA-N

> <BindingDB MonomerID>
50046688

> <BindingDB Ligand Name>
CHEMBL3310431

> <Target Name>
Tyrosine-protein phosphatase non-receptor type 1

> <Target Source Organism According to Curator or DataSource>
Homo sapiens

> <IC50 (nM)>
4900

> <Curation/DataSource>
ChEMBL

> <Article DOI>
10.1016/j.bmcl.2014.05.099

> <BindingDB Entry DOI>
10.7270/Q29888N1

> <PMID>
24953600

> <Authors>
Wang, Z; Liu, Z; Lee, W; Kim, SN; Yoon, G; Cheon, SH

> <Institution>
Chonnam National University

> <Link to Ligand in BindingDB>
http://www.bindingdb.org/bind/chemsearch/marvin/MolStructure.jsp?monomerid=50046688

> <Link to Ligand-Target Pair in BindingDB>
http://www.bindingdb.org/jsp/dbsearch/PrimarySearch_ki.jsp?energyterm=kJ/mole&tag=pol&polymerid=2622&target=Tyrosine-protein+phosphatase+non-receptor+type+1&column=ki&startPg=0&Increment=50&submit=Sea
rch
http://www.bindingdb.org/jsp/dbsearch/PrimarySearch_ki.jsp?energyterm=kJ/mole&tag=r21&monomerid=50046688&enzyme=Tyrosine-protein+phosphatase+non-receptor+type+1&column=ki&startPg=0&Increment=50&submit
=Search

> <PubChem CID of Ligand>
118706503

> <PubChem SID of Ligand>
313068702

> <ChEMBL ID of Ligand>
CHEMBL3310431

> <Number of Protein Chains in Target (bigger than 1 implies a multichain complex)>
1

> <BindingDB Target Chain Sequence>
MEMEKEFEQIDKSGSWAAIYQDIRHEASDFPCRVAKLPKNKNRNRYRDVSPFDHSRIKLHQEDNDYINASLIKMEEAQRSYILTQGPLPNTCGHFWEMVWEQKSRGVVMLNRVMEKGSLKCAQYWPQKEEKEMIFEDTNLKLTLISEDIKSYYTVRQLELENLTTQETREILHFHYTTWPDFGVPESPASFLNFLFKVRE
SGSLSPEHGPVVVHCSAGIGRSGTFCLADTCLLLMDKRKDPSSVDIKKVLLEMRKFRMGLIQTADQLRFSYLAVIEGAKFIMGDSSVQDQWKELSHEDLEPPPEHIPPPPRPPKRILEPHNGKCREFFPNHQWVKEETQEDKDCPIKEEKGSPLNAAPYGIESMSQDTEVRSRVVGGSLRGAQAASPAKGEPSLPEKDED
HALSYWKPFLVNMCVATVLTAGAYLCYRFLFNSNT

> <PDB ID(s) of Target Chain>
1BZJ,1G7G,1GFY,1JF7,1KAK,1KAV,1LQF,1NL9,1NNY,1NO6,1NZ7,1OEM,1OEO,1OES,1OET,1OEU,1OEV,1ONY,1ONZ,1PH0,1PXH,1PYN,1Q1M,1Q6J,1Q6M,1Q6N,1Q6P,1Q6S,1Q6T,1QXK,1SUG,1T48,1T49,1T4J,1WAX,1XBO,2AZR,2B07,2BGD,2BGE,
2CM2,2CM3,2CM7,2CM8,2CMA,2CMB,2CMC,2CNE,2CNF,2CNG,2CNH,2CNI,2F6T,2F6V,2F6W,2F6Y,2F6Z,2F70,2F71,2FJN,2H4G,2H4K,2HB1,2HNP,2HNQ,2QBP,2QBQ,2QBR,2QBS,2VEU,2VEV,2VEW,2VEX,2VEY,2ZMM,2ZN7,3A5J,3CWE,3D9C,3EAX,
3EB1,3EU0,3I7Z,3I80,3SME,4BJO,4I8N,4QBW,4Y14,5K9V,5K9W,5KA0,5KA1,5T19,6B90,6NTP,6W30,7KEY,7KLX,7LFO,7MN9,7MNA,8DU7,8G65,8G67,8G68,8G69,8G6A,8SKL

> <UniProt (SwissProt) Recommended Name of Target Chain>
Tyrosine-protein phosphatase non-receptor type 1

> <UniProt (SwissProt) Entry Name of Target Chain>
PTN1_HUMAN

> <UniProt (SwissProt) Primary ID of Target Chain>
P18031

> <UniProt (SwissProt) Secondary ID(s) of Target Chain>
Q5TGD8 Q9BQV9 Q9NQQ4

$$$$
Molecule
  SciTegic10242319433D

 46 48  0  0  0  0            999 V2000
   -5.1513   -0.2582    0.0001 C   0  0
   -6.4173   -0.9956    0.0001 C   0  0
   -6.4217   -2.3277    0.0001 C   0  0
   -7.6967   -3.0553    0.0002 C   0  0
   -8.8484   -2.3849    0.0003 C   0  0
   -8.8425   -0.9201    0.0004 C   0  0
   -7.6859   -0.2593    0.0003 C   0  0
   -5.2040    0.9765    0.0001 O   0  0
   -3.9140   -0.9968    0.0000 O   0  0
   -2.6618   -0.2738   -0.0001 C   0  0
   -2.5848    1.0593   -0.0001 C   0  0
   -1.2859    1.7373   -0.0001 C   0  0
   -0.1600    1.0282   -0.0001 C   0  0
   -0.2252   -0.4348   -0.0001 C   0  0
   -1.4091   -1.0509   -0.0001 C   0  0
    1.1368    1.7206   -0.0001 C   0  0
    2.3884    0.9590   -0.0001 C   0  0
    3.5599    1.5987   -0.0002 C   0  0
    1.1712    2.9561   -0.0001 O   0  0
    4.8955    0.9144    0.0003 C   0  0
    5.0432   -0.4233   -0.0004 C   0  0
    6.4017   -1.0009    0.0002 C   0  0
    7.4751   -0.2156   -0.0002 C   0  0
    7.3166    1.2304   -0.0001 C   0  0
    6.0976    1.7671   -0.0004 C   0  0
    3.9341   -1.2888    0.0001 O   0  0
    4.3426   -2.6637    0.0001 C   0  0
    8.7482   -0.7767   -0.0001 O   0  0
    8.8533    2.3502   -0.0003 Br  0  0
   -5.4800   -2.8766    0.0000 H   0  0
   -7.7014   -4.1453    0.0002 H   0  0
   -9.7944   -2.9263    0.0004 H   0  0
   -9.7841   -0.3710    0.0005 H   0  0
   -7.6821    0.8307    0.0003 H   0  0
   -3.5003    1.6509    0.0000 H   0  0
   -1.2417    2.8264   -0.0001 H   0  0
    0.6938   -1.0210   -0.0002 H   0  0
   -1.4502   -2.1401   -0.0001 H   0  0
    2.3629   -0.1307   -0.0001 H   0  0
    3.5456    2.6886   -0.0008 H   0  0
    6.5265   -2.0837    0.0010 H   0  0
    5.9876    2.8516   -0.0012 H   0  0
    3.4613   -3.3051    0.0006 H   0  0
    4.9390   -2.8660    0.8898 H   0  0
    4.9383   -2.8663   -0.8900 H   0  0
    8.8694   -1.3706    0.8574 H   0  0
  1  2  1  0
  2  3  2  0
  3  4  1  0
  4  5  2  0
  5  6  1  0
  6  7  2  0
  2  7  1  0
  1  8  2  0
  1  9  1  0
 10 11  2  0
 11 12  1  0
 12 13  2  0
 13 14  1  0
 14 15  2  0
 10 15  1  0
 16 17  1  0
 17 18  2  0
 16 19  2  0
 20 21  2  0
 21 22  1  0
 22 23  2  0
 23 24  1  0
 24 25  2  0
 20 25  1  0
 26 27  1  0
 21 26  1  0
 23 28  1  0
 24 29  1  0
 18 20  1  0
 13 16  1  0
  9 10  1  0
  3 30  1  0
  4 31  1  0
  5 32  1  0
  6 33  1  0
  7 34  1  0
 11 35  1  0
 12 36  1  0
 14 37  1  0
 15 38  1  0
 17 39  1  0
 18 40  1  0
 22 41  1  0
 25 42  1  0
 27 43  1  0
 27 44  1  0
 27 45  1  0
 28 46  1  0
M  END
> <Name>
Molecule

> <Clean Energy>
2.18811

> <From>
www.bindingDB.org

> <BindingDB Reactant_set_id>
50641713

> <Ligand InChI>
InChI=1S/C23H17BrO5/c1-28-22-14-21(26)19(24)13-17(22)9-12-20(25)15-7-10-18(11-8-15)29-23(27)16-5-3-2-4-6-16/h2-14,26H,1H3/b12-9+

> <Ligand InChI Key>
RQXYHTXFRAPVMA-FMIVXFBMSA-N

> <BindingDB MonomerID>
50344611

> <BindingDB Ligand Name>
(E)-4-(3-(5-Bromo-4-hydroxy-2-methoxyphenyl)acryloyl)phenyl benzoate::CHEMBL1778908

> <Target Name>
Tyrosine-protein phosphatase non-receptor type 1

> <Target Source Organism According to Curator or DataSource>
Homo sapiens

> <IC50 (nM)>
4900

> <Curation/DataSource>
ChEMBL

> <Article DOI>
10.1016/j.bmcl.2011.04.057

> <BindingDB Entry DOI>
10.7270/Q23J3D96

> <PMID>
21555221

> <Authors>
Liu, Z; Lee, W; Kim, SN; Yoon, G; Cheon, SH

> <Institution>
Chonnam National University

> <Link to Ligand in BindingDB>
http://www.bindingdb.org/bind/chemsearch/marvin/MolStructure.jsp?monomerid=50344611

> <Link to Ligand-Target Pair in BindingDB>
http://www.bindingdb.org/jsp/dbsearch/PrimarySearch_ki.jsp?energyterm=kJ/mole&tag=pol&polymerid=2622&target=Tyrosine-protein+phosphatase+non-receptor+type+1&column=ki&startPg=0&Increment=50&submit=Sea
rch
http://www.bindingdb.org/jsp/dbsearch/PrimarySearch_ki.jsp?energyterm=kJ/mole&tag=r21&monomerid=50344611&enzyme=Tyrosine-protein+phosphatase+non-receptor+type+1&column=ki&startPg=0&Increment=50&submit
=Search

> <PubChem CID of Ligand>
54584777

> <PubChem SID of Ligand>
131347547

> <ChEMBL ID of Ligand>
CHEMBL1778908

> <ZINC ID of Ligand>
ZINC71332102

> <Number of Protein Chains in Target (bigger than 1 implies a multichain complex)>
1

> <BindingDB Target Chain Sequence>
MEMEKEFEQIDKSGSWAAIYQDIRHEASDFPCRVAKLPKNKNRNRYRDVSPFDHSRIKLHQEDNDYINASLIKMEEAQRSYILTQGPLPNTCGHFWEMVWEQKSRGVVMLNRVMEKGSLKCAQYWPQKEEKEMIFEDTNLKLTLISEDIKSYYTVRQLELENLTTQETREILHFHYTTWPDFGVPESPASFLNFLFKVRE
SGSLSPEHGPVVVHCSAGIGRSGTFCLADTCLLLMDKRKDPSSVDIKKVLLEMRKFRMGLIQTADQLRFSYLAVIEGAKFIMGDSSVQDQWKELSHEDLEPPPEHIPPPPRPPKRILEPHNGKCREFFPNHQWVKEETQEDKDCPIKEEKGSPLNAAPYGIESMSQDTEVRSRVVGGSLRGAQAASPAKGEPSLPEKDED
HALSYWKPFLVNMCVATVLTAGAYLCYRFLFNSNT

> <PDB ID(s) of Target Chain>
1BZJ,1G7G,1GFY,1JF7,1KAK,1KAV,1LQF,1NL9,1NNY,1NO6,1NZ7,1OEM,1OEO,1OES,1OET,1OEU,1OEV,1ONY,1ONZ,1PH0,1PXH,1PYN,1Q1M,1Q6J,1Q6M,1Q6N,1Q6P,1Q6S,1Q6T,1QXK,1SUG,1T48,1T49,1T4J,1WAX,1XBO,2AZR,2B07,2BGD,2BGE,
2CM2,2CM3,2CM7,2CM8,2CMA,2CMB,2CMC,2CNE,2CNF,2CNG,2CNH,2CNI,2F6T,2F6V,2F6W,2F6Y,2F6Z,2F70,2F71,2FJN,2H4G,2H4K,2HB1,2HNP,2HNQ,2QBP,2QBQ,2QBR,2QBS,2VEU,2VEV,2VEW,2VEX,2VEY,2ZMM,2ZN7,3A5J,3CWE,3D9C,3EAX,
3EB1,3EU0,3I7Z,3I80,3SME,4BJO,4I8N,4QBW,4Y14,5K9V,5K9W,5KA0,5KA1,5T19,6B90,6NTP,6W30,7KEY,7KLX,7LFO,7MN9,7MNA,8DU7,8G65,8G67,8G68,8G69,8G6A,8SKL

> <UniProt (SwissProt) Recommended Name of Target Chain>
Tyrosine-protein phosphatase non-receptor type 1

> <UniProt (SwissProt) Entry Name of Target Chain>
PTN1_HUMAN

> <UniProt (SwissProt) Primary ID of Target Chain>
P18031

> <UniProt (SwissProt) Secondary ID(s) of Target Chain>
Q5TGD8 Q9BQV9 Q9NQQ4

$$$$
Molecule
  SciTegic10242319433D

 71 76  0  0  0  0            999 V2000
    0.1203   -8.3955    0.1373 C   0  0
   -0.1537   -9.8737    0.4129 C   0  0
   -1.3800  -10.3782    0.3119 C   0  0
   -2.5006   -9.5579   -0.0512 C   0  0
   -2.3153   -8.2729   -0.3018 C   0  0
   -0.9730   -7.6529   -0.2084 C   0  0
   -4.0531  -11.5369    0.0792 O   0  0
   -3.8367  -10.1647   -0.0818 C   0  0
   -4.9899   -9.4840   -0.2352 C   0  0
   -6.0085  -10.5051   -0.1674 C   0  0
   -5.3835  -11.7297    0.0120 C   0  0
   -7.3289  -10.3780   -0.2524 C   0  0
   -8.1314  -11.6228   -0.1594 C   0  0
   -7.5207  -12.8076    0.0020 C   0  0
   -6.0480  -12.8722    0.0988 C   0  0
   -8.2723  -13.9759    0.0799 O   0  0
   -0.9243   -6.2862   -0.4457 O   0  0
    3.1158   -9.7786   -0.1870 C   0  0
    2.3342  -10.0058   -1.1108 O   0  0
    4.0577  -10.8739    0.2035 C   0  0
    3.9926  -12.0402   -0.4672 C   0  0
    4.9343  -13.1106   -0.1723 C   0  0
    5.8627  -12.9477    0.7607 C   0  0
    5.9291  -11.6898    1.5155 C   0  0
    5.0651  -10.7075    1.2571 C   0  0
    6.7722  -13.9693    1.0160 O   0  0
    3.0574  -12.2320   -1.4801 O   0  0
    3.1344   -8.3299    0.3338 C   0  0  2  0  0  0
    1.6015   -7.6940    0.3901 C   0  0  1  0  0  0
    1.5785   -6.1907    0.3641 C   0  0
    2.6257   -5.4265    0.0701 C   0  0
    3.9721   -5.9906   -0.2057 C   0  0
    4.0300   -7.4647   -0.6675 C   0  0  1  0  0  0
    2.4594   -3.9374    0.0758 C   0  0
    5.5913   -7.9356   -0.6085 C   0  0
    6.5128   -7.4098    0.2603 C   0  0
    7.8871   -7.9172    0.2852 C   0  0
    8.2730   -8.8942   -0.5188 C   0  0
    7.3223   -9.4626   -1.4649 C   0  0
    6.0664   -9.0075   -1.5215 C   0  0
    9.5843   -9.3665   -0.4535 O   0  0
    6.2461   -6.4018    1.1959 O   0  0
    0.8287  -10.7421    0.8209 O   0  0
   -1.5378  -11.4385    0.5092 H   0  0
   -3.1688   -7.6562   -0.5834 H   0  0
   -5.1227   -8.4115   -0.3773 H   0  0
   -7.8005   -9.4042   -0.3844 H   0  0
   -9.2185  -11.5752   -0.2221 H   0  0
   -5.5295  -13.8211    0.2361 H   0  0
   -8.9280  -13.9169    0.8979 H   0  0
   -0.5866   -5.7925    0.4173 H   0  0
    4.8760  -14.0506   -0.7210 H   0  0
    6.6862  -11.5588    2.2886 H   0  0
    5.1073   -9.7805    1.8290 H   0  0
    6.2549  -14.8317    1.3180 H   0  0
    2.0893  -12.1208   -1.0890 H   0  0
    3.5755   -8.3064    1.3302 H   0  0
    1.5320   -7.7543    1.4762 H   0  0
    0.6385   -5.6934    0.6029 H   0  0
    4.4305   -5.3828   -0.9858 H   0  0
    4.5574   -5.9091    0.7102 H   0  0
    3.6491   -7.5545   -1.6848 H   0  0
    3.4064   -3.4645   -0.1846 H   0  0
    2.1511   -3.6095    1.0685 H   0  0
    1.6998   -3.6533   -0.6525 H   0  0
    8.6053   -7.4812    0.9796 H   0  0
    7.6372  -10.2650   -2.1320 H   0  0
    5.3772   -9.4313   -2.2519 H   0  0
   10.2501   -8.5827   -0.6652 H   0  0
    5.9175   -5.5384    0.6967 H   0  0
    1.5861  -10.7808    0.0946 H   0  0
  1  6  2  0
  7  8  1  0
  8  9  2  0
  9 10  1  0
 10 11  1  0
  7 11  1  0
 12 13  1  0
 13 14  2  0
 14 15  1  0
 11 15  2  0
 10 12  2  0
 14 16  1  0
  4  8  1  0
  6 17  1  0
  1  2  1  0
  2  3  2  0
  3  4  1  0
  4  5  2  0
 18 19  2  0
 20 21  2  0
 21 22  1  0
 22 23  2  0
 23 24  1  0
 24 25  2  0
 20 25  1  0
 23 26  1  0
 21 27  1  0
 18 20  1  0
 28 29  1  0
 29 30  1  0
 30 31  2  0
 31 32  1  0
 33 32  1  0
 28 33  1  0
 31 34  1  0
 35 36  2  0
 36 37  1  0
 37 38  2  0
 38 39  1  0
 39 40  2  0
 35 40  1  0
 38 41  1  0
 36 42  1  0
 33 35  1  0
 28 18  1  0
 29  1  1  0
  5  6  1  0
  2 43  1  0
  3 44  1  0
  5 45  1  0
  9 46  1  0
 12 47  1  0
 13 48  1  0
 15 49  1  0
 16 50  1  0
 17 51  1  0
 22 52  1  0
 24 53  1  0
 25 54  1  0
 26 55  1  0
 27 56  1  0
 28 57  1  0
 29 58  1  0
 30 59  1  0
 32 60  1  0
 32 61  1  0
 33 62  1  0
 34 63  1  0
 34 64  1  0
 34 65  1  0
 37 66  1  0
 39 67  1  0
 40 68  1  0
 41 69  1  0
 42 70  1  0
 43 71  1  0
M  END
> <Name>
Molecule

> <Clean Energy>
136.439

> <From>
www.bindingDB.org

> <BindingDB Reactant_set_id>
50331265

> <Ligand InChI>
InChI=1S/C34H28O9/c1-16-8-24(22-6-4-19(35)13-26(22)38)32(34(42)23-7-5-20(36)14-27(23)39)25(9-16)33-28(40)10-18(11-29(33)41)30-12-17-2-3-21(37)15-31(17)43-30/h2-7,9-15,24-25,32,35-41H,8H2,1H3/t24-,25+,
32-/m0/s1

> <Ligand InChI Key>
WTGKDESIYCVAOP-UNTHUGQZSA-N

> <BindingDB MonomerID>
50179010

> <BindingDB Ligand Name>
CHEMBL378806::Mulberrofuran C

> <Target Name>
Tyrosine-protein phosphatase non-receptor type 1

> <Target Source Organism According to Curator or DataSource>
Homo sapiens

> <IC50 (nM)>
4900

> <Curation/DataSource>
ChEMBL

> <Article DOI>
10.1016/j.bmcl.2005.11.071

> <BindingDB Entry DOI>
10.7270/Q2JQ10KT

> <PMID>
16356713

> <Authors>
Cui, L; Na, M; Oh, H; Bae, EY; Jeong, DG; Ryu, SE; Kim, S; Kim, BY; Oh, WK; Ahn, JS

> <Institution>
Korea Research Institute of Bioscience and Biotechnology (KRIBB)

> <Link to Ligand in BindingDB>
http://www.bindingdb.org/bind/chemsearch/marvin/MolStructure.jsp?monomerid=50179010

> <Link to Ligand-Target Pair in BindingDB>
http://www.bindingdb.org/jsp/dbsearch/PrimarySearch_ki.jsp?energyterm=kJ/mole&tag=pol&polymerid=2622&target=Tyrosine-protein+phosphatase+non-receptor+type+1&column=ki&startPg=0&Increment=50&submit=Sea
rch
http://www.bindingdb.org/jsp/dbsearch/PrimarySearch_ki.jsp?energyterm=kJ/mole&tag=r21&monomerid=50179010&enzyme=Tyrosine-protein+phosphatase+non-receptor+type+1&column=ki&startPg=0&Increment=50&submit
=Search

> <PubChem CID of Ligand>
157143

> <PubChem SID of Ligand>
104064238

> <ChEMBL ID of Ligand>
CHEMBL378806

> <KEGG ID of Ligand>
C08928

> <ZINC ID of Ligand>
ZINC04097826

> <Number of Protein Chains in Target (bigger than 1 implies a multichain complex)>
1

> <BindingDB Target Chain Sequence>
MEMEKEFEQIDKSGSWAAIYQDIRHEASDFPCRVAKLPKNKNRNRYRDVSPFDHSRIKLHQEDNDYINASLIKMEEAQRSYILTQGPLPNTCGHFWEMVWEQKSRGVVMLNRVMEKGSLKCAQYWPQKEEKEMIFEDTNLKLTLISEDIKSYYTVRQLELENLTTQETREILHFHYTTWPDFGVPESPASFLNFLFKVRE
SGSLSPEHGPVVVHCSAGIGRSGTFCLADTCLLLMDKRKDPSSVDIKKVLLEMRKFRMGLIQTADQLRFSYLAVIEGAKFIMGDSSVQDQWKELSHEDLEPPPEHIPPPPRPPKRILEPHNGKCREFFPNHQWVKEETQEDKDCPIKEEKGSPLNAAPYGIESMSQDTEVRSRVVGGSLRGAQAASPAKGEPSLPEKDED
HALSYWKPFLVNMCVATVLTAGAYLCYRFLFNSNT

> <PDB ID(s) of Target Chain>
1BZJ,1G7G,1GFY,1JF7,1KAK,1KAV,1LQF,1NL9,1NNY,1NO6,1NZ7,1OEM,1OEO,1OES,1OET,1OEU,1OEV,1ONY,1ONZ,1PH0,1PXH,1PYN,1Q1M,1Q6J,1Q6M,1Q6N,1Q6P,1Q6S,1Q6T,1QXK,1SUG,1T48,1T49,1T4J,1WAX,1XBO,2AZR,2B07,2BGD,2BGE,
2CM2,2CM3,2CM7,2CM8,2CMA,2CMB,2CMC,2CNE,2CNF,2CNG,2CNH,2CNI,2F6T,2F6V,2F6W,2F6Y,2F6Z,2F70,2F71,2FJN,2H4G,2H4K,2HB1,2HNP,2HNQ,2QBP,2QBQ,2QBR,2QBS,2VEU,2VEV,2VEW,2VEX,2VEY,2ZMM,2ZN7,3A5J,3CWE,3D9C,3EAX,
3EB1,3EU0,3I7Z,3I80,3SME,4BJO,4I8N,4QBW,4Y14,5K9V,5K9W,5KA0,5KA1,5T19,6B90,6NTP,6W30,7KEY,7KLX,7LFO,7MN9,7MNA,8DU7,8G65,8G67,8G68,8G69,8G6A,8SKL

> <UniProt (SwissProt) Recommended Name of Target Chain>
Tyrosine-protein phosphatase non-receptor type 1

> <UniProt (SwissProt) Entry Name of Target Chain>
PTN1_HUMAN

> <UniProt (SwissProt) Primary ID of Target Chain>
P18031

> <UniProt (SwissProt) Secondary ID(s) of Target Chain>
Q5TGD8 Q9BQV9 Q9NQQ4

$$$$
Molecule
  SciTegic10242319433D

 82 86  0  0  0  0            999 V2000
    8.8637   -0.4783    0.3662 C   0  0  2  0  0  0
    8.9124   -1.8978   -0.3251 C   0  0  1  0  0  0
   10.0941   -2.7985    0.1686 C   0  0
   10.2250    0.2742    0.0670 C   0  0
   11.4800   -0.5183    0.5473 C   0  0  1  0  0  0
   11.4295   -1.9686   -0.1380 C   0  0  1  0  0  0
   12.7166   -2.7854    0.2024 C   0  0
   13.9697   -2.0351   -0.3987 C   0  0
   12.8085    0.1796    0.0451 C   0  0  2  0  0  0
   14.1627   -0.6546    0.2449 C   0  0  2  0  0  0
   14.3207    2.2175    0.6038 C   0  0
   12.9483    1.5594    0.7389 C   0  0
   15.4154    1.5948    0.1092 C   0  0
   15.3274    0.1644   -0.4751 C   0  0  1  0  0  0
   16.6838   -0.5673   -0.4218 C   0  0
   17.8410    0.3264   -0.9814 C   0  0
   16.6980    2.4145    0.0675 C   0  0  1  0  0  0
   18.0567    1.5202    0.0126 C   0  0  2  0  0  0
   19.2653    2.3997   -0.5347 C   0  0
   19.0852    3.7563    0.0142 C   0  0
   17.9086    4.3793   -0.8521 C   0  0
   16.7606    3.2775   -1.1641 C   0  0
   17.3627    5.5807   -0.0334 C   0  0
   18.4089    4.9077   -2.2057 C   0  0
   18.3785    0.9880    1.4390 C   0  0
   17.6966    0.1373    2.0198 O   0  0
   19.4881    1.4978    2.1068 O   0  0
   14.6099   -0.8815    1.7462 C   0  0
   11.4853   -0.5285    2.1356 C   0  0
    8.6173   -0.5887    1.7728 O   0  0
    7.6785   -2.5863   -0.1274 O   0  0
   15.0377    0.3077   -2.0135 C   0  0
   10.1069   -4.1044   -0.6354 C   0  0
    9.9002   -3.2378    1.6651 C   0  0
    8.0504    0.0932   -0.0808 H   0  0
    9.0383   -1.7418   -1.3965 H   0  0
   10.2077    1.2380    0.5757 H   0  0
   10.3051    0.4319   -1.0086 H   0  0
   11.4472   -1.8009   -1.2149 H   0  0
   12.8229   -2.8671    1.2841 H   0  0
   12.6433   -3.7822   -0.2324 H   0  0
   14.8612   -2.6363   -0.2204 H   0  0
   13.8250   -1.9082   -1.4716 H   0  0
   12.6949    0.3633   -1.0233 H   0  0
   14.4244    3.2536    0.9262 H   0  0
   12.2077    2.2315    0.3056 H   0  0
   12.7413    1.4257    1.8007 H   0  0
   16.9057   -0.8265    0.6134 H   0  0
   16.6189   -1.4770   -1.0188 H   0  0
   18.7566   -0.2601   -1.0588 H   0  0
   17.5698    0.7090   -1.9653 H   0  0
   16.7343    3.0555    0.9483 H   0  0
   20.2150    1.9823   -0.2002 H   0  0
   19.2446    2.4297   -1.6241 H   0  0
   18.8074    3.7125    1.0673 H   0  0
   19.9979    4.3418   -0.0972 H   0  0
   17.0302    2.6809   -2.0356 H   0  0
   15.8011    3.7642   -1.3390 H   0  0
   16.5467    6.0530   -0.5803 H   0  0
   18.1610    6.3059    0.1248 H   0  0
   16.9968    5.2277    0.9308 H   0  0
   17.5718    5.3248   -2.7654 H   0  0
   18.8536    4.0903   -2.7735 H   0  0
   19.1566    5.6832   -2.0397 H   0  0
   20.3547    1.3011    1.5475 H   0  0
   14.7556    0.0832    2.2322 H   0  0
   15.5441   -1.4428    1.7667 H   0  0
   13.8385   -1.4413    2.2750 H   0  0
   12.3559   -1.0784    2.4930 H   0  0
   10.5776   -1.0100    2.4994 H   0  0
   11.5261    0.4959    2.5058 H   0  0
    7.6960   -1.0670    1.9308 H   0  0
    7.5078   -2.7114    0.9011 H   0  0
   15.8441    0.8693   -2.4849 H   0  0
   14.0950    0.8354   -2.1586 H   0  0
   14.9726   -0.6822   -2.4652 H   0  0
    9.1983   -4.6690   -0.4267 H   0  0
   10.9761   -4.6978   -0.3516 H   0  0
   10.1555   -3.8757   -1.7000 H   0  0
    8.9670   -3.7923    1.7635 H   0  0
    9.8660   -2.3540    2.3022 H   0  0
   10.7330   -3.8722    1.9689 H   0  0
 17 18  1  0
  6  7  1  0
  7  8  1  0
 10  8  1  0
  9 10  1  0
  6  3  1  0
  5  4  1  0
 17 22  1  0
 18 19  1  0
 19 20  1  0
 20 21  1  0
 21 22  1  0
  5  6  1  0
 21 23  1  0
 21 24  1  0
  9 12  1  0
 18 25  1  0
 10 14  1  0
 25 26  2  0
 13 11  2  0
 25 27  1  0
 11 12  1  0
 10 28  1  0
 14 13  1  0
  5 29  1  0
  1  2  1  0
  1  4  1  0
  2  3  1  0
  1 30  1  0
  5  9  1  0
  2 31  1  0
 17 13  1  0
 14 15  1  0
 14 32  1  0
 15 16  1  0
  3 33  1  0
 18 16  1  0
  3 34  1  0
  1 35  1  0
  2 36  1  0
  4 37  1  0
  4 38  1  0
  6 39  1  0
  7 40  1  0
  7 41  1  0
  8 42  1  0
  8 43  1  0
  9 44  1  0
 11 45  1  0
 12 46  1  0
 12 47  1  0
 15 48  1  0
 15 49  1  0
 16 50  1  0
 16 51  1  0
 17 52  1  0
 19 53  1  0
 19 54  1  0
 20 55  1  0
 20 56  1  0
 22 57  1  0
 22 58  1  0
 23 59  1  0
 23 60  1  0
 23 61  1  0
 24 62  1  0
 24 63  1  0
 24 64  1  0
 27 65  1  0
 28 66  1  0
 28 67  1  0
 28 68  1  0
 29 69  1  0
 29 70  1  0
 29 71  1  0
 30 72  1  0
 31 73  1  0
 32 74  1  0
 32 75  1  0
 32 76  1  0
 33 77  1  0
 33 78  1  0
 33 79  1  0
 34 80  1  0
 34 81  1  0
 34 82  1  0
M  END
> <Name>
Molecule

> <Clean Energy>
105.004

> <From>
www.bindingDB.org

> <BindingDB Reactant_set_id>
50533716

> <Ligand InChI>
InChI=1S/C30H48O4/c1-25(2)12-14-30(24(33)34)15-13-28(6)18(19(30)16-25)8-9-22-27(5)17-20(31)23(32)26(3,4)21(27)10-11-29(22,28)7/h8,19-23,31-32H,9-17H2,1-7H3,(H,33,34)/t19-,20-,21-,22+,23-,27-,28+,29+,3
0-/m0/s1

> <Ligand InChI Key>
MDZKJHQSJHYOHJ-KRGADYIYSA-N

> <BindingDB MonomerID>
50299747

> <BindingDB Ligand Name>
2beta,3beta-Dihydroxyolean-12-en-28-oic Acid::CHEMBL482673::augustic acid

> <Target Name>
Tyrosine-protein phosphatase non-receptor type 1

> <Target Source Organism According to Curator or DataSource>
Homo sapiens

> <IC50 (nM)>
4930

> <Curation/DataSource>
ChEMBL

> <Article DOI>
10.1016/j.bmcl.2009.10.017

> <BindingDB Entry DOI>
10.7270/Q2BR8S8F

> <PMID>
19846303

> <Authors>
Qiu, WW; Shen, Q; Yang, F; Wang, B; Zou, H; Li, JY; Li, J; Tang, J

> <Institution>
East China Normal University

> <Link to Ligand in BindingDB>
http://www.bindingdb.org/bind/chemsearch/marvin/MolStructure.jsp?monomerid=50299747

> <Link to Ligand-Target Pair in BindingDB>
http://www.bindingdb.org/jsp/dbsearch/PrimarySearch_ki.jsp?energyterm=kJ/mole&tag=pol&polymerid=2622&target=Tyrosine-protein+phosphatase+non-receptor+type+1&column=ki&startPg=0&Increment=50&submit=Sea
rch
http://www.bindingdb.org/jsp/dbsearch/PrimarySearch_ki.jsp?energyterm=kJ/mole&tag=r21&monomerid=50299747&enzyme=Tyrosine-protein+phosphatase+non-receptor+type+1&column=ki&startPg=0&Increment=50&submit
=Search

> <PubChem CID of Ligand>
15560128

> <PubChem SID of Ligand>
104141276

> <ChEMBL ID of Ligand>
CHEMBL482673

> <ZINC ID of Ligand>
ZINC14980269

> <Number of Protein Chains in Target (bigger than 1 implies a multichain complex)>
1

> <BindingDB Target Chain Sequence>
MEMEKEFEQIDKSGSWAAIYQDIRHEASDFPCRVAKLPKNKNRNRYRDVSPFDHSRIKLHQEDNDYINASLIKMEEAQRSYILTQGPLPNTCGHFWEMVWEQKSRGVVMLNRVMEKGSLKCAQYWPQKEEKEMIFEDTNLKLTLISEDIKSYYTVRQLELENLTTQETREILHFHYTTWPDFGVPESPASFLNFLFKVRE
SGSLSPEHGPVVVHCSAGIGRSGTFCLADTCLLLMDKRKDPSSVDIKKVLLEMRKFRMGLIQTADQLRFSYLAVIEGAKFIMGDSSVQDQWKELSHEDLEPPPEHIPPPPRPPKRILEPHNGKCREFFPNHQWVKEETQEDKDCPIKEEKGSPLNAAPYGIESMSQDTEVRSRVVGGSLRGAQAASPAKGEPSLPEKDED
HALSYWKPFLVNMCVATVLTAGAYLCYRFLFNSNT

> <PDB ID(s) of Target Chain>
1BZJ,1G7G,1GFY,1JF7,1KAK,1KAV,1LQF,1NL9,1NNY,1NO6,1NZ7,1OEM,1OEO,1OES,1OET,1OEU,1OEV,1ONY,1ONZ,1PH0,1PXH,1PYN,1Q1M,1Q6J,1Q6M,1Q6N,1Q6P,1Q6S,1Q6T,1QXK,1SUG,1T48,1T49,1T4J,1WAX,1XBO,2AZR,2B07,2BGD,2BGE,
2CM2,2CM3,2CM7,2CM8,2CMA,2CMB,2CMC,2CNE,2CNF,2CNG,2CNH,2CNI,2F6T,2F6V,2F6W,2F6Y,2F6Z,2F70,2F71,2FJN,2H4G,2H4K,2HB1,2HNP,2HNQ,2QBP,2QBQ,2QBR,2QBS,2VEU,2VEV,2VEW,2VEX,2VEY,2ZMM,2ZN7,3A5J,3CWE,3D9C,3EAX,
3EB1,3EU0,3I7Z,3I80,3SME,4BJO,4I8N,4QBW,4Y14,5K9V,5K9W,5KA0,5KA1,5T19,6B90,6NTP,6W30,7KEY,7KLX,7LFO,7MN9,7MNA,8DU7,8G65,8G67,8G68,8G69,8G6A,8SKL

> <UniProt (SwissProt) Recommended Name of Target Chain>
Tyrosine-protein phosphatase non-receptor type 1

> <UniProt (SwissProt) Entry Name of Target Chain>
PTN1_HUMAN

> <UniProt (SwissProt) Primary ID of Target Chain>
P18031

> <UniProt (SwissProt) Secondary ID(s) of Target Chain>
Q5TGD8 Q9BQV9 Q9NQQ4

$$$$
Molecule
  SciTegic10242319433D

 61 65  0  0  0  0            999 V2000
    3.0256    2.0356   -0.0107 C   0  0
    2.9838    0.7022    0.0068 C   0  0
    4.2320   -0.0528    0.0148 C   0  0
    5.4118    0.5663    0.0037 C   0  0
    5.4613    2.0308   -0.0157 C   0  0
    4.3240    2.7294   -0.0219 C   0  0
    6.6220   -0.2782    0.0112 C   0  0
    6.5491   -1.5585    0.0380 N   0  0
    7.8123   -2.0322    0.0359 N   0  0
    8.7186   -1.0365    0.0068 C   0  0
    8.0633    0.1013   -0.0104 C   0  0
    8.7552    1.4594   -0.0570 C   0  0
   10.1114    1.5311   -0.0606 C   0  0
   11.1603    0.2305   -0.0128 S   0  0
   12.6278    0.9533   -0.0627 C   0  0
   12.4492    2.4222   -0.1006 N   0  0
   10.9697    2.7573   -0.1168 C   0  0
   10.4990    3.8962   -0.1845 O   0  0
   13.9349    0.0896   -0.1644 S   0  0
   13.6020    3.4265   -0.1788 C   0  0  2  0  0  0
   14.9479    2.7640    0.2927 C   0  0
   13.3031    4.7320    0.5802 C   0  0
   16.2818    3.4616    0.0835 C   0  0
   17.3751    2.8257    0.5070 C   0  0
   18.6993    3.4104    0.3209 C   0  0
   18.8218    4.5888   -0.2839 C   0  0
   17.6264    5.2937   -0.7625 C   0  0
   16.4168    4.7584   -0.5921 C   0  0
   14.2786    5.3150    1.3821 O   0  0
   12.2219    5.3117    0.4559 O   0  0
    8.2139   -3.3548    0.0318 C   0  0
    7.3377   -4.3535    0.0371 C   0  0
    7.8271   -5.7390    0.0267 C   0  0
    9.1371   -5.9910    0.0110 C   0  0
   10.0959   -4.8895    0.0049 C   0  0
    9.6558   -3.6358    0.0150 C   0  0
    1.7580    0.0037    0.0163 O   0  0
    0.6342    0.8966    0.0041 C   0  0
    2.0996    2.6106   -0.0168 H   0  0
    4.1989   -1.1422    0.0301 H   0  0
    6.4215    2.5466   -0.0251 H   0  0
    4.3568    3.8188   -0.0353 H   0  0
    9.8022   -1.1540   -0.0010 H   0  0
    8.1612    2.3729   -0.0873 H   0  0
   13.7261    3.6891   -1.2294 H   0  0
   14.8511    2.5969    1.3655 H   0  0
   15.0167    1.8047   -0.2202 H   0  0
   17.2784    1.8574    0.9981 H   0  0
   19.5847    2.8833    0.6763 H   0  0
   19.8085    5.0303   -0.4239 H   0  0
   17.7278    6.2586   -1.2592 H   0  0
   15.5314    5.2818   -0.9530 H   0  0
   14.5578    4.6428    2.1390 H   0  0
    6.2674   -4.1474    0.0490 H   0  0
    7.1161   -6.5651    0.0320 H   0  0
    9.4925   -7.0214    0.0026 H   0  0
   11.1663   -5.0946   -0.0079 H   0  0
   10.3686   -2.8112    0.0108 H   0  0
   -0.2899    0.3186    0.0119 H   0  0
    0.6690    1.5129   -0.8943 H   0  0
    0.6689    1.5372    0.8852 H   0  0
 17 18  2  0
  2  3  1  0
 15 19  2  0
  8  9  1  0
 16 20  1  0
  9 10  1  0
 20 21  1  0
 10 11  2  0
 20 22  1  0
 11  7  1  0
 21 23  1  0
  4  7  1  0
 23 24  2  0
  5  6  2  0
 24 25  1  0
 11 12  1  0
 25 26  2  0
  6  1  1  0
 26 27  1  0
 12 13  2  0
 27 28  2  0
 28 23  1  0
 13 14  1  0
  7  8  2  0
 22 29  1  0
 22 30  2  0
  1  2  2  0
  3  4  2  0
 31 32  2  0
 32 33  1  0
 14 15  1  0
 33 34  2  0
 15 16  1  0
 34 35  1  0
 16 17  1  0
 35 36  2  0
 36 31  1  0
  9 31  1  0
 17 13  1  0
  2 37  1  0
  4  5  1  0
 37 38  1  0
  1 39  1  0
  3 40  1  0
  5 41  1  0
  6 42  1  0
 10 43  1  0
 12 44  1  0
 20 45  1  0
 21 46  1  0
 21 47  1  0
 24 48  1  0
 25 49  1  0
 26 50  1  0
 27 51  1  0
 28 52  1  0
 29 53  1  0
 32 54  1  0
 33 55  1  0
 34 56  1  0
 35 57  1  0
 36 58  1  0
 38 59  1  0
 38 60  1  0
 38 61  1  0
M  END
> <Name>
Molecule

> <Clean Energy>
76.5396

> <From>
www.bindingDB.org

> <BindingDB Reactant_set_id>
51233105

> <Ligand InChI>
InChI=1S/C29H23N3O4S2/c1-36-23-14-8-11-20(16-23)26-21(18-31(30-26)22-12-6-3-7-13-22)17-25-27(33)32(29(37)38-25)24(28(34)35)15-19-9-4-2-5-10-19/h2-14,16-18,24H,15H2,1H3,(H,34,35)/b25-17-/t24-/m1/s1

> <Ligand InChI Key>
PMLSOZXFUWKISF-KRFWEUHSSA-N

> <BindingDB MonomerID>
50505234

> <BindingDB Ligand Name>
CHEMBL2153204

> <Target Name>
Tyrosine-protein phosphatase non-receptor type 1

> <Target Source Organism According to Curator or DataSource>
Homo sapiens

> <IC50 (nM)>
4950

> <Curation/DataSource>
ChEMBL

> <Article DOI>
10.1016/j.bmcl.2019.03.023

> <BindingDB Entry DOI>
10.7270/Q2CR5XN6

> <PMID>
30910462

> <Authors>
Sun, L; Wang, P; Xu, L; Gao, L; Li, J; Piao, H

> <Institution>
Yanbian University

> <Link to Ligand in BindingDB>
http://www.bindingdb.org/bind/chemsearch/marvin/MolStructure.jsp?monomerid=50505234

> <Link to Ligand-Target Pair in BindingDB>
http://www.bindingdb.org/jsp/dbsearch/PrimarySearch_ki.jsp?energyterm=kJ/mole&tag=pol&polymerid=2622&target=Tyrosine-protein+phosphatase+non-receptor+type+1&column=ki&startPg=0&Increment=50&submit=Sea
rch
http://www.bindingdb.org/jsp/dbsearch/PrimarySearch_ki.jsp?energyterm=kJ/mole&tag=r21&monomerid=50505234&enzyme=Tyrosine-protein+phosphatase+non-receptor+type+1&column=ki&startPg=0&Increment=50&submit
=Search

> <PubChem CID of Ligand>
71462024

> <PubChem SID of Ligand>
440713819

> <Number of Protein Chains in Target (bigger than 1 implies a multichain complex)>
1

> <BindingDB Target Chain Sequence>
MEMEKEFEQIDKSGSWAAIYQDIRHEASDFPCRVAKLPKNKNRNRYRDVSPFDHSRIKLHQEDNDYINASLIKMEEAQRSYILTQGPLPNTCGHFWEMVWEQKSRGVVMLNRVMEKGSLKCAQYWPQKEEKEMIFEDTNLKLTLISEDIKSYYTVRQLELENLTTQETREILHFHYTTWPDFGVPESPASFLNFLFKVRE
SGSLSPEHGPVVVHCSAGIGRSGTFCLADTCLLLMDKRKDPSSVDIKKVLLEMRKFRMGLIQTADQLRFSYLAVIEGAKFIMGDSSVQDQWKELSHEDLEPPPEHIPPPPRPPKRILEPHNGKCREFFPNHQWVKEETQEDKDCPIKEEKGSPLNAAPYGIESMSQDTEVRSRVVGGSLRGAQAASPAKGEPSLPEKDED
HALSYWKPFLVNMCVATVLTAGAYLCYRFLFNSNT

> <PDB ID(s) of Target Chain>
1BZJ,1G7G,1GFY,1JF7,1KAK,1KAV,1LQF,1NL9,1NNY,1NO6,1NZ7,1OEM,1OEO,1OES,1OET,1OEU,1OEV,1ONY,1ONZ,1PH0,1PXH,1PYN,1Q1M,1Q6J,1Q6M,1Q6N,1Q6P,1Q6S,1Q6T,1QXK,1SUG,1T48,1T49,1T4J,1WAX,1XBO,2AZR,2B07,2BGD,2BGE,
2CM2,2CM3,2CM7,2CM8,2CMA,2CMB,2CMC,2CNE,2CNF,2CNG,2CNH,2CNI,2F6T,2F6V,2F6W,2F6Y,2F6Z,2F70,2F71,2FJN,2H4G,2H4K,2HB1,2HNP,2HNQ,2QBP,2QBQ,2QBR,2QBS,2VEU,2VEV,2VEW,2VEX,2VEY,2ZMM,2ZN7,3A5J,3CWE,3D9C,3EAX,
3EB1,3EU0,3I7Z,3I80,3SME,4BJO,4I8N,4QBW,4Y14,5K9V,5K9W,5KA0,5KA1,5T19,6B90,6NTP,6W30,7KEY,7KLX,7LFO,7MN9,7MNA,8DU7,8G65,8G67,8G68,8G69,8G6A,8SKL

> <UniProt (SwissProt) Recommended Name of Target Chain>
Tyrosine-protein phosphatase non-receptor type 1

> <UniProt (SwissProt) Entry Name of Target Chain>
PTN1_HUMAN

> <UniProt (SwissProt) Primary ID of Target Chain>
P18031

> <UniProt (SwissProt) Secondary ID(s) of Target Chain>
Q5TGD8 Q9BQV9 Q9NQQ4

$$$$
Biphenyl-4,4'-diylbis((3-(2-fluorophenyl)-1-oxa-2,8-diazaspiro[4.5]dec-2-en-8-yl)methanone)
  SciTegic10242319433D

 86 93  0  0  0  0            999 V2000
    7.3103   -4.9694   -0.0536 C   0  0
    5.9224   -5.0891   -0.0016 C   0  0
    5.0945   -3.9712    0.0161 C   0  0
    5.6452   -2.6909   -0.0142 C   0  0
    7.0274   -2.5596   -0.0636 C   0  0
    7.8547   -3.6862   -0.0837 C   0  0
    4.7432   -1.4840    0.0052 C   0  0
    3.3615   -1.6216    0.0404 C   0  0
    2.5292   -0.4994    0.0547 C   0  0
    3.0669    0.7866    0.0354 C   0  0
    4.4549    0.9133    0.0010 C   0  0
    5.2885   -0.2010   -0.0142 C   0  0
    8.1208   -6.2819   -0.0600 C   0  0
    7.4561   -7.3191    0.0465 O   0  0
   13.6348   -6.2033    0.2142 O   0  0
   14.9007   -6.4803    0.1085 N   0  0
   14.9898   -7.7019    0.0711 C   0  0
   13.6734   -8.2470    0.1784 C   0  0
   12.5776   -7.1315   -0.3142 C   0  0
   11.5177   -7.9647    0.4655 C   0  0
   10.0590   -7.8233   -0.0640 C   0  0
    9.5839   -6.4662   -0.1246 N   0  0
   10.5500   -5.4068   -0.3078 C   0  0
   11.9713   -5.7866    0.2284 C   0  0
   16.2418   -8.5009    0.0126 C   0  0
   17.4930   -7.8921   -0.0450 C   0  0
   18.6460   -8.6712   -0.0889 C   0  0
   18.5552  -10.0581   -0.0749 C   0  0
   17.3077  -10.6677   -0.0170 C   0  0
   16.1561   -9.8902    0.0270 C   0  0
   17.6018   -6.5571   -0.0560 F   0  0
    2.2462    2.0933    0.0428 C   0  0
    2.9050    3.1391    0.0063 O   0  0
   -3.2927    2.0020   -0.1689 O   0  0
   -4.5434    2.3175   -0.0790 N   0  0
   -4.6063    3.5388   -0.0167 C   0  0
   -3.2782    4.0636   -0.0865 C   0  0
   -2.2028    2.8991    0.3386 C   0  0
   -1.1721    3.7753   -0.4272 C   0  0
    0.2975    3.6202    0.0576 C   0  0
    0.7803    2.2638    0.0617 N   0  0
   -0.1809    1.1878    0.1440 C   0  0
   -1.6075    1.6112   -0.3401 C   0  0
   -5.8504    4.3529    0.0283 C   0  0
   -7.1067    3.7456    0.0422 C   0  0
   -8.2574    4.5255    0.0679 C   0  0
   -8.1639    5.9126    0.0798 C   0  0
   -6.9141    6.5198    0.0668 C   0  0
   -5.7619    5.7399    0.0404 C   0  0
   -7.2168    2.4112    0.0262 F   0  0
    5.4751   -6.0827    0.0260 H   0  0
    4.0124   -4.0968    0.0537 H   0  0
    7.4726   -1.5649   -0.0870 H   0  0
    8.9367   -3.5601   -0.1233 H   0  0
    2.9206   -2.6183    0.0570 H   0  0
    1.4475   -0.6309    0.0813 H   0  0
    4.8979    1.9091   -0.0143 H   0  0
    6.3703   -0.0704   -0.0414 H   0  0
   13.5955   -9.1345   -0.4497 H   0  0
   13.4755   -8.5169    1.2157 H   0  0
   11.8004   -9.0156    0.4045 H   0  0
   11.5331   -7.6436    1.5071 H   0  0
   10.0173   -8.2455   -1.0681 H   0  0
    9.3996   -8.3874    0.5956 H   0  0
   10.6266   -5.1849   -1.3722 H   0  0
   10.2017   -4.5215    0.2243 H   0  0
   12.6548   -4.9810   -0.0399 H   0  0
   11.9082   -5.8638    1.3139 H   0  0
   19.6238   -8.1917   -0.1345 H   0  0
   19.4595  -10.6656   -0.1093 H   0  0
   17.2321  -11.7550   -0.0060 H   0  0
   15.1794  -10.3718    0.0731 H   0  0
   -3.0718    4.3934   -1.1047 H   0  0
   -3.1859    4.9088    0.5955 H   0  0
   -1.2123    3.5034   -1.4820 H   0  0
   -1.4602    4.8199   -0.3095 H   0  0
    0.9376    4.2082   -0.6000 H   0  0
    0.3644    4.0092    1.0737 H   0  0
    0.1667    0.3621   -0.4769 H   0  0
   -0.2483    0.8597    1.1813 H   0  0
   -1.5571    1.7914   -1.4139 H   0  0
   -2.2880    0.7831   -0.1417 H   0  0
   -9.2369    4.0475    0.0789 H   0  0
   -9.0677    6.5216    0.0992 H   0  0
   -6.8363    7.6069    0.0771 H   0  0
   -4.7834    6.2201    0.0292 H   0  0
  1  2  4  0
  2  3  4  0
  3  4  4  0
  4  5  4  0
  5  6  4  0
  1  6  4  0
  4  7  1  0
  7  8  4  0
  8  9  4  0
  9 10  4  0
 10 11  4  0
 11 12  4  0
  7 12  4  0
 13 14  2  0
 15 16  1  0
 16 17  2  0
 17 18  1  0
 18 19  1  0
 15 19  1  0
 19 20  1  0
 20 21  1  0
 21 22  1  0
 22 23  1  0
 23 24  1  0
 19 24  1  0
 25 26  4  0
 26 27  4  0
 27 28  4  0
 28 29  4  0
 29 30  4  0
 25 30  4  0
 26 31  1  0
 17 25  1  0
 13 22  1  0
  1 13  1  0
 32 33  2  0
 34 35  1  0
 35 36  2  0
 36 37  1  0
 37 38  1  0
 34 38  1  0
 38 39  1  0
 39 40  1  0
 40 41  1  0
 41 42  1  0
 42 43  1  0
 38 43  1  0
 44 45  4  0
 45 46  4  0
 46 47  4  0
 47 48  4  0
 48 49  4  0
 44 49  4  0
 45 50  1  0
 36 44  1  0
 32 41  1  0
 10 32  1  0
  2 51  1  0
  3 52  1  0
  5 53  1  0
  6 54  1  0
  8 55  1  0
  9 56  1  0
 11 57  1  0
 12 58  1  0
 18 59  1  0
 18 60  1  0
 20 61  1  0
 20 62  1  0
 21 63  1  0
 21 64  1  0
 23 65  1  0
 23 66  1  0
 24 67  1  0
 24 68  1  0
 27 69  1  0
 28 70  1  0
 29 71  1  0
 30 72  1  0
 37 73  1  0
 37 74  1  0
 39 75  1  0
 39 76  1  0
 40 77  1  0
 40 78  1  0
 42 79  1  0
 42 80  1  0
 43 81  1  0
 43 82  1  0
 46 83  1  0
 47 84  1  0
 48 85  1  0
 49 86  1  0
M  END
> <Name>
Biphenyl-4,4'-diylbis((3-(2-fluorophenyl)-1-oxa-2,8-diazaspiro[4.5]dec-2-en-8-yl)methanone)

> <Clean Energy>
254.147

> <From>
www.bindingDB.org

> <BindingDB Reactant_set_id>
311703

> <Ligand InChI>
InChI=1S/C40H36F2N4O4/c41-33-7-3-1-5-31(33)35-25-39(49-43-35)17-21-45(22-18-39)37(47)29-13-9-27(10-14-29)28-11-15-30(16-12-28)38(48)46-23-19-40(20-24-46)26-36(44-50-40)32-6-2-4-8-34(32)42/h1-16H,17-26
H2

> <Ligand InChI Key>
ZJWARHDWKBHDDK-UHFFFAOYSA-N

> <BindingDB MonomerID>
167901

> <BindingDB Ligand Name>
Biphenyl-4,4&#39;-diylbis((3-(2-fluorophenyl)-1-oxa-2,8-diazaspiro[4.5]dec-2-en-8-yl)methanone) (6g)

> <Target Name>
Tyrosine-protein phosphatase non-receptor type 1

> <Target Source Organism According to Curator or DataSource>
Homo sapiens

> <IC50 (nM)>
4960

> <pH>
6.5

> <Curation/DataSource>
Curated from the literature by BindingDB

> <Article DOI>
10.1111/cbdd.12587

> <BindingDB Entry DOI>
10.7270/Q20C4TJ1

> <PMID>
25996453

> <PubChem AID>
aid1801408

> <Authors>
Wang, WL; Chen, X; Gao, LX; Sheng, L; Li, JY; Li, J; Feng, B

> <Institution>
Jiangnan University

> <Link to Ligand in BindingDB>
http://www.bindingdb.org/bind/chemsearch/marvin/MolStructure.jsp?monomerid=167901

> <Link to Ligand-Target Pair in BindingDB>
http://www.bindingdb.org/jsp/dbsearch/PrimarySearch_ki.jsp?energyterm=kJ/mole&tag=pol&polymerid=2622&target=Tyrosine-protein+phosphatase+non-receptor+type+1&column=ki&startPg=0&Increment=50&submit=Sea
rch
http://www.bindingdb.org/jsp/dbsearch/PrimarySearch_ki.jsp?energyterm=kJ/mole&tag=r21&monomerid=167901&enzyme=Tyrosine-protein+phosphatase+non-receptor+type+1&column=ki&startPg=0&Increment=50&submit=S
earch

> <PubChem CID of Ligand>
118796580

> <PubChem SID of Ligand>
312525315

> <Number of Protein Chains in Target (bigger than 1 implies a multichain complex)>
1

> <BindingDB Target Chain Sequence>
MEMEKEFEQIDKSGSWAAIYQDIRHEASDFPCRVAKLPKNKNRNRYRDVSPFDHSRIKLHQEDNDYINASLIKMEEAQRSYILTQGPLPNTCGHFWEMVWEQKSRGVVMLNRVMEKGSLKCAQYWPQKEEKEMIFEDTNLKLTLISEDIKSYYTVRQLELENLTTQETREILHFHYTTWPDFGVPESPASFLNFLFKVRE
SGSLSPEHGPVVVHCSAGIGRSGTFCLADTCLLLMDKRKDPSSVDIKKVLLEMRKFRMGLIQTADQLRFSYLAVIEGAKFIMGDSSVQDQWKELSHEDLEPPPEHIPPPPRPPKRILEPHNGKCREFFPNHQWVKEETQEDKDCPIKEEKGSPLNAAPYGIESMSQDTEVRSRVVGGSLRGAQAASPAKGEPSLPEKDED
HALSYWKPFLVNMCVATVLTAGAYLCYRFLFNSNT

> <PDB ID(s) of Target Chain>
1BZJ,1G7G,1GFY,1JF7,1KAK,1KAV,1LQF,1NL9,1NNY,1NO6,1NZ7,1OEM,1OEO,1OES,1OET,1OEU,1OEV,1ONY,1ONZ,1PH0,1PXH,1PYN,1Q1M,1Q6J,1Q6M,1Q6N,1Q6P,1Q6S,1Q6T,1QXK,1SUG,1T48,1T49,1T4J,1WAX,1XBO,2AZR,2B07,2BGD,2BGE,
2CM2,2CM3,2CM7,2CM8,2CMA,2CMB,2CMC,2CNE,2CNF,2CNG,2CNH,2CNI,2F6T,2F6V,2F6W,2F6Y,2F6Z,2F70,2F71,2FJN,2H4G,2H4K,2HB1,2HNP,2HNQ,2QBP,2QBQ,2QBR,2QBS,2VEU,2VEV,2VEW,2VEX,2VEY,2ZMM,2ZN7,3A5J,3CWE,3D9C,3EAX,
3EB1,3EU0,3I7Z,3I80,3SME,4BJO,4I8N,4QBW,4Y14,5K9V,5K9W,5KA0,5KA1,5T19,6B90,6NTP,6W30,7KEY,7KLX,7LFO,7MN9,7MNA,8DU7,8G65,8G67,8G68,8G69,8G6A,8SKL

> <UniProt (SwissProt) Recommended Name of Target Chain>
Tyrosine-protein phosphatase non-receptor type 1

> <UniProt (SwissProt) Entry Name of Target Chain>
PTN1_HUMAN

> <UniProt (SwissProt) Primary ID of Target Chain>
P18031

> <UniProt (SwissProt) Secondary ID(s) of Target Chain>
Q5TGD8 Q9BQV9 Q9NQQ4

$$$$
Molecule
  SciTegic10242319433D

 81 85  0  0  0  0            999 V2000
    0.9635   -1.3272    0.2283 C   0  0
    0.9946   -2.8001   -0.3041 C   0  0  1  0  0  0
    2.1503   -3.6054    0.3504 C   0  0
    2.2899   -0.6026   -0.2063 C   0  0
    3.4975   -1.2858    0.4562 C   0  0  1  0  0  0
    3.4987   -2.8268    0.0006 C   0  0  1  0  0  0
    4.7480   -3.5738    0.5977 C   0  0
    6.0634   -2.9248    0.0342 C   0  0
    4.8644   -0.6820   -0.0845 C   0  0  2  0  0  0
    6.1919   -1.4372    0.4412 C   0  0  2  0  0  0
    6.3365    1.4197    0.1919 C   0  0
    4.9394    0.8082    0.2922 C   0  0
    7.4781    0.7420   -0.0422 C   0  0
    7.4259   -0.7877   -0.2931 C   0  0  1  0  0  0
    8.7730   -1.4632    0.0879 C   0  0
    9.7687   -0.7814   -0.8337 C   0  0
    8.8772    1.4698    0.1604 C   0  0  1  0  0  0
   10.1416    0.6557   -0.4139 C   0  0  2  0  0  0
   10.6765    1.4174   -1.6058 C   0  0
   11.0987    2.9101   -1.2376 C   0  0
   10.3314    3.5830   -0.0008 C   0  0  2  0  0  0
    8.9235    3.1132   -0.1034 C   0  0  2  0  0  0
    2.2037   -5.0179   -0.2573 C   0  0
    1.8600   -3.8020    1.8702 C   0  0
   -0.2416   -3.4586   -0.0217 O   0  0
   11.2327    0.5250    0.7158 C   0  0
   11.4777   -0.7261    1.2752 O   0  0
   11.8901    1.4769    1.1438 O   0  0
    3.3449   -1.0138    2.0020 C   0  0
    6.4850   -1.3566    1.9875 C   0  0
    8.0471    3.8990    0.9182 C   0  0
    7.2667   -0.9975   -1.8478 C   0  0
   10.4687    5.1101   -0.1492 C   0  0
    0.1053   -0.8037   -0.1930 H   0  0
    0.8885   -1.3325    1.3157 H   0  0
    1.1453   -2.7814   -1.3834 H   0  0
    2.2499    0.4416    0.1038 H   0  0
    2.3932   -0.6567   -1.2900 H   0  0
    3.6048   -2.8405   -1.0841 H   0  0
    4.7373   -3.4887    1.6843 H   0  0
    4.7118   -4.6259    0.3148 H   0  0
    6.9215   -3.4723    0.4241 H   0  0
    6.0520   -2.9929   -1.0536 H   0  0
    4.8513   -0.7502   -1.1723 H   0  0
    6.4170    2.4991    0.3210 H   0  0
    4.2777    1.3611   -0.3745 H   0  0
    4.5938    0.9168    1.3202 H   0  0
    9.0200   -1.2822    1.1340 H   0  0
    8.7392   -2.5368   -0.0975 H   0  0
    9.3372   -0.7436   -1.8339 H   0  0
   10.6802   -1.3787   -0.8529 H   0  0
    9.0236    1.4009    1.2383 H   0  0
   11.5501    0.8926   -1.9925 H   0  0
    9.9036    1.4523   -2.3736 H   0  0
   12.1635    2.9056   -1.0045 H   0  0
   10.9210    3.5311   -2.1156 H   0  0
   10.7715    3.2541    0.9406 H   0  0
    8.5578    3.3175   -1.1097 H   0  0
    1.2835   -5.5514   -0.0194 H   0  0
    3.0544   -5.5598    0.1559 H   0  0
    2.3111   -4.9445   -1.3395 H   0  0
    0.9213   -4.3417    1.9945 H   0  0
    1.7859   -2.8286    2.3553 H   0  0
    2.6697   -4.3731    2.3243 H   0  0
   -0.4015   -3.4739    1.0160 H   0  0
   10.5974   -1.0914    1.7159 H   0  0
    4.1756   -1.4748    2.5363 H   0  0
    2.4056   -1.4392    2.3553 H   0  0
    3.3480    0.0609    2.1844 H   0  0
    6.5777   -0.3125    2.2863 H   0  0
    7.4143   -1.8814    2.2095 H   0  0
    5.6661   -1.8201    2.5377 H   0  0
    8.1094    4.9663    0.7058 H   0  0
    8.4077    3.7087    1.9291 H   0  0
    7.0105    3.5725    0.8351 H   0  0
    8.1165   -0.5510   -2.3641 H   0  0
    6.3460   -0.5224   -2.1866 H   0  0
    7.2274   -2.0641   -2.0689 H   0  0
    9.9572    5.6034    0.6772 H   0  0
   10.0222    5.4256   -1.0923 H   0  0
   11.5238    5.3834   -0.1378 H   0  0
 18 16  1  0
 17 18  1  0
  6  7  1  0
  7  8  1  0
 10  8  1  0
  9 10  1  0
  6  3  1  0
  5  4  1  0
 17 22  1  0
 18 19  1  0
 19 20  1  0
 21 20  1  0
 22 21  1  0
  5  6  1  0
  3 23  1  0
  3 24  1  0
  9 12  1  0
  2 25  1  0
 10 14  1  0
 18 26  1  0
 13 11  2  0
 11 12  1  0
 26 27  1  0
 26 28  2  0
 14 13  1  0
  5 29  1  0
  2  1  1  0
 10 30  1  0
  1  4  1  0
 22 31  1  0
  2  3  1  0
 14 32  1  0
  5  9  1  0
 17 13  1  0
 14 15  1  0
 15 16  1  0
 21 33  1  0
  1 34  1  0
  1 35  1  0
  2 36  1  0
  4 37  1  0
  4 38  1  0
  6 39  1  0
  7 40  1  0
  7 41  1  0
  8 42  1  0
  8 43  1  0
  9 44  1  0
 11 45  1  0
 12 46  1  0
 12 47  1  0
 15 48  1  0
 15 49  1  0
 16 50  1  0
 16 51  1  0
 17 52  1  0
 19 53  1  0
 19 54  1  0
 20 55  1  0
 20 56  1  0
 21 57  1  0
 22 58  1  0
 23 59  1  0
 23 60  1  0
 23 61  1  0
 24 62  1  0
 24 63  1  0
 24 64  1  0
 25 65  1  0
 27 66  1  0
 29 67  1  0
 29 68  1  0
 29 69  1  0
 30 70  1  0
 30 71  1  0
 30 72  1  0
 31 73  1  0
 31 74  1  0
 31 75  1  0
 32 76  1  0
 32 77  1  0
 32 78  1  0
 33 79  1  0
 33 80  1  0
 33 81  1  0
M  END
> <Name>
Molecule

> <Clean Energy>
144.916

> <From>
www.bindingDB.org

> <BindingDB Reactant_set_id>
51328917

> <Ligand InChI>
InChI=1S/C30H48O3/c1-18-10-15-30(25(32)33)17-16-28(6)20(24(30)19(18)2)8-9-22-27(5)13-12-23(31)26(3,4)21(27)11-14-29(22,28)7/h8,18-19,21-24,31H,9-17H2,1-7H3,(H,32,33)/t18-,19+,21+,22-,23+,24+,27+,28-,2
9-,30+/m1/s1

> <Ligand InChI Key>
WCGUUGGRBIKTOS-GPOJBZKASA-N

> <BindingDB MonomerID>
50148911

> <BindingDB Ligand Name>
(3beta)-3-hydroxyurs-12-en-28-oic acid::3beta-hydroxyurs-12-en-28-oic acid::CHEMBL169::Ursolic acid::malol::prunol::urson

> <Target Name>
Tyrosine-protein phosphatase non-receptor type 1

> <Target Source Organism According to Curator or DataSource>
Homo sapiens

> <IC50 (nM)>
5000

> <Curation/DataSource>
ChEMBL

> <Article DOI>
10.1021/acs.jnatprod.9b00777

> <BindingDB Entry DOI>
10.7270/Q2GM8BVJ

> <PMID>
31944695

> <Authors>
Nguyen, TA; Ha, MT; Park, SE; Choi, JS; Min, BS; Kim, JA

> <Institution>
Kyungpook National University

> <Link to Ligand in BindingDB>
http://www.bindingdb.org/bind/chemsearch/marvin/MolStructure.jsp?monomerid=50148911

> <Link to Ligand-Target Pair in BindingDB>
http://www.bindingdb.org/jsp/dbsearch/PrimarySearch_ki.jsp?energyterm=kJ/mole&tag=pol&polymerid=2622&target=Tyrosine-protein+phosphatase+non-receptor+type+1&column=ki&startPg=0&Increment=50&submit=Sea
rch
http://www.bindingdb.org/jsp/dbsearch/PrimarySearch_ki.jsp?energyterm=kJ/mole&tag=r21&monomerid=50148911&enzyme=Tyrosine-protein+phosphatase+non-receptor+type+1&column=ki&startPg=0&Increment=50&submit
=Search

> <Ligand HET ID in PDB>
6Q5

> <PDB ID(s) for Ligand-Target Complex>
5K3M,5X8S

> <PubChem CID of Ligand>
64945

> <PubChem SID of Ligand>
104037097

> <ChEBI ID of Ligand>
9908

> <ChEMBL ID of Ligand>
CHEMBL169

> <KEGG ID of Ligand>
C08988

> <ZINC ID of Ligand>
ZINC03978827

> <Number of Protein Chains in Target (bigger than 1 implies a multichain complex)>
1

> <BindingDB Target Chain Sequence>
MEMEKEFEQIDKSGSWAAIYQDIRHEASDFPCRVAKLPKNKNRNRYRDVSPFDHSRIKLHQEDNDYINASLIKMEEAQRSYILTQGPLPNTCGHFWEMVWEQKSRGVVMLNRVMEKGSLKCAQYWPQKEEKEMIFEDTNLKLTLISEDIKSYYTVRQLELENLTTQETREILHFHYTTWPDFGVPESPASFLNFLFKVRE
SGSLSPEHGPVVVHCSAGIGRSGTFCLADTCLLLMDKRKDPSSVDIKKVLLEMRKFRMGLIQTADQLRFSYLAVIEGAKFIMGDSSVQDQWKELSHEDLEPPPEHIPPPPRPPKRILEPHNGKCREFFPNHQWVKEETQEDKDCPIKEEKGSPLNAAPYGIESMSQDTEVRSRVVGGSLRGAQAASPAKGEPSLPEKDED
HALSYWKPFLVNMCVATVLTAGAYLCYRFLFNSNT

> <PDB ID(s) of Target Chain>
1BZJ,1G7G,1GFY,1JF7,1KAK,1KAV,1LQF,1NL9,1NNY,1NO6,1NZ7,1OEM,1OEO,1OES,1OET,1OEU,1OEV,1ONY,1ONZ,1PH0,1PXH,1PYN,1Q1M,1Q6J,1Q6M,1Q6N,1Q6P,1Q6S,1Q6T,1QXK,1SUG,1T48,1T49,1T4J,1WAX,1XBO,2AZR,2B07,2BGD,2BGE,
2CM2,2CM3,2CM7,2CM8,2CMA,2CMB,2CMC,2CNE,2CNF,2CNG,2CNH,2CNI,2F6T,2F6V,2F6W,2F6Y,2F6Z,2F70,2F71,2FJN,2H4G,2H4K,2HB1,2HNP,2HNQ,2QBP,2QBQ,2QBR,2QBS,2VEU,2VEV,2VEW,2VEX,2VEY,2ZMM,2ZN7,3A5J,3CWE,3D9C,3EAX,
3EB1,3EU0,3I7Z,3I80,3SME,4BJO,4I8N,4QBW,4Y14,5K9V,5K9W,5KA0,5KA1,5T19,6B90,6NTP,6W30,7KEY,7KLX,7LFO,7MN9,7MNA,8DU7,8G65,8G67,8G68,8G69,8G6A,8SKL

> <UniProt (SwissProt) Recommended Name of Target Chain>
Tyrosine-protein phosphatase non-receptor type 1

> <UniProt (SwissProt) Entry Name of Target Chain>
PTN1_HUMAN

> <UniProt (SwissProt) Primary ID of Target Chain>
P18031

> <UniProt (SwissProt) Secondary ID(s) of Target Chain>
Q5TGD8 Q9BQV9 Q9NQQ4

$$$$
Molecule
  SciTegic10242319433D

 51 54  0  0  0  0            999 V2000
    5.0553  -18.5360    0.0001 S   0  0
    6.2217  -19.7317   -0.0001 C   0  0
    7.5566  -19.0486    0.0000 C   0  0
    7.4211  -17.5603    0.0001 N   0  0
    6.0486  -17.1810    0.0002 C   0  0
    8.6177  -19.6756   -0.0001 O   0  0
    6.0280  -21.0627   -0.0001 C   0  0
    4.6826  -21.7579   -0.0002 C   0  0
    5.5374  -15.7026    0.0003 S   0  0
    8.4583  -16.4702    0.0002 C   0  0
    9.9955  -16.6663    0.0001 C   0  0
   10.6372  -17.9001    0.0004 C   0  0
   12.0265  -17.9773    0.0004 C   0  0
   12.7912  -16.8154    0.0000 C   0  0
   12.1611  -15.5793   -0.0002 C   0  0
   10.7723  -15.5110   -0.0002 C   0  0
   14.2534  -16.8929    0.0000 C   0  0
   14.8849  -18.1316    0.0002 O   0  0
   14.9272  -15.8559   -0.0004 O   0  0
    3.4777  -21.0594   -0.0002 C   0  0
    2.2604  -21.7383   -0.0002 C   0  0
    2.2300  -23.1305   -0.0002 C   0  0
    3.4322  -23.8305   -0.0002 C   0  0
    4.6469  -23.1494   -0.0002 C   0  0
    0.9953  -23.8493   -0.0001 O   0  0
   -0.1479  -22.9638   -0.0001 C   0  0
   -1.4544  -23.7459    0.0001 C   0  0
   -2.6665  -23.0622   -0.0001 C   0  0
   -3.8685  -23.7625    0.0002 C   0  0
   -3.8625  -25.1527    0.0007 C   0  0
   -2.6527  -25.8388    0.0009 C   0  0
   -1.4503  -25.1374    0.0006 C   0  0
    6.9157  -21.6953   -0.0002 H   0  0
    8.2475  -15.8774   -0.8900 H   0  0
    8.2475  -15.8775    0.8903 H   0  0
   10.0460  -18.8158    0.0007 H   0  0
   12.5168  -18.9508    0.0006 H   0  0
   12.7532  -14.6641   -0.0005 H   0  0
   10.2837  -14.5367   -0.0004 H   0  0
   14.6033  -18.6684    0.8576 H   0  0
    3.4867  -19.9695   -0.0002 H   0  0
    1.3266  -21.1760   -0.0002 H   0  0
    3.4233  -24.9204   -0.0002 H   0  0
    5.5803  -23.7123   -0.0002 H   0  0
   -0.1102  -22.3357    0.8899 H   0  0
   -0.1104  -22.3360   -0.8904 H   0  0
   -2.6741  -21.9722   -0.0004 H   0  0
   -4.8147  -23.2214    0.0001 H   0  0
   -4.8031  -25.7033    0.0009 H   0  0
   -2.6461  -26.9288    0.0013 H   0  0
   -0.5043  -25.6789    0.0008 H   0  0
  1  2  1  0
  2  3  1  0
  3  4  1  0
  4  5  1  0
  5  1  1  0
  3  6  2  0
  2  7  2  0
  7  8  1  0
  5  9  2  0
  4 10  1  0
 10 11  1  0
 11 12  4  0
 12 13  4  0
 13 14  4  0
 14 15  4  0
 15 16  4  0
 16 11  4  0
 14 17  1  0
 17 18  1  0
 17 19  2  0
  8 20  4  0
 20 21  4  0
 21 22  4  0
 22 23  4  0
 23 24  4  0
 24  8  4  0
 22 25  1  0
 25 26  1  0
 26 27  1  0
 27 28  4  0
 28 29  4  0
 29 30  4  0
 30 31  4  0
 31 32  4  0
 32 27  4  0
  7 33  1  0
 10 34  1  0
 10 35  1  0
 12 36  1  0
 13 37  1  0
 15 38  1  0
 16 39  1  0
 18 40  1  0
 20 41  1  0
 21 42  1  0
 23 43  1  0
 24 44  1  0
 26 45  1  0
 26 46  1  0
 28 47  1  0
 29 48  1  0
 30 49  1  0
 31 50  1  0
 32 51  1  0
M  END
> <Name>
Molecule

> <Clean Energy>
31.3982

> <From>
www.bindingDB.org

> <BindingDB Reactant_set_id>
50683870

> <Ligand InChI>
InChI=1S/C25H19NO4S2/c27-23-22(32-25(31)26(23)15-18-6-10-20(11-7-18)24(28)29)14-17-8-12-21(13-9-17)30-16-19-4-2-1-3-5-19/h1-14H,15-16H2,(H,28,29)/b22-14-

> <Ligand InChI Key>
CJSMMAWCBWHEMU-HMAPJEAMSA-N

> <BindingDB MonomerID>
50232097

> <BindingDB Ligand Name>
CHEMBL4091784

> <Target Name>
Tyrosine-protein phosphatase non-receptor type 1

> <Target Source Organism According to Curator or DataSource>
Homo sapiens

> <IC50 (nM)>
5000

> <Curation/DataSource>
ChEMBL

> <Article DOI>
10.1016/j.ejmech.2016.10.063

> <BindingDB Entry DOI>
10.7270/Q21J9D18

> <PMID>
27842892

> <Authors>
Ottanà, R; Paoli, P; Naß, A; Lori, G; Cardile, V; Adornato, I; Rotondo, A; Graziano, ACE; Wolber, G; Maccari, R

> <Institution>
University of Messina

> <Link to Ligand in BindingDB>
http://www.bindingdb.org/bind/chemsearch/marvin/MolStructure.jsp?monomerid=50232097

> <Link to Ligand-Target Pair in BindingDB>
http://www.bindingdb.org/jsp/dbsearch/PrimarySearch_ki.jsp?energyterm=kJ/mole&tag=pol&polymerid=2622&target=Tyrosine-protein+phosphatase+non-receptor+type+1&column=ki&startPg=0&Increment=50&submit=Sea
rch
http://www.bindingdb.org/jsp/dbsearch/PrimarySearch_ki.jsp?energyterm=kJ/mole&tag=r21&monomerid=50232097&enzyme=Tyrosine-protein+phosphatase+non-receptor+type+1&column=ki&startPg=0&Increment=50&submit
=Search

> <PubChem CID of Ligand>
137652959

> <PubChem SID of Ligand>
384226507

> <ChEMBL ID of Ligand>
CHEMBL4091784

> <Number of Protein Chains in Target (bigger than 1 implies a multichain complex)>
1

> <BindingDB Target Chain Sequence>
MEMEKEFEQIDKSGSWAAIYQDIRHEASDFPCRVAKLPKNKNRNRYRDVSPFDHSRIKLHQEDNDYINASLIKMEEAQRSYILTQGPLPNTCGHFWEMVWEQKSRGVVMLNRVMEKGSLKCAQYWPQKEEKEMIFEDTNLKLTLISEDIKSYYTVRQLELENLTTQETREILHFHYTTWPDFGVPESPASFLNFLFKVRE
SGSLSPEHGPVVVHCSAGIGRSGTFCLADTCLLLMDKRKDPSSVDIKKVLLEMRKFRMGLIQTADQLRFSYLAVIEGAKFIMGDSSVQDQWKELSHEDLEPPPEHIPPPPRPPKRILEPHNGKCREFFPNHQWVKEETQEDKDCPIKEEKGSPLNAAPYGIESMSQDTEVRSRVVGGSLRGAQAASPAKGEPSLPEKDED
HALSYWKPFLVNMCVATVLTAGAYLCYRFLFNSNT

> <PDB ID(s) of Target Chain>
1BZJ,1G7G,1GFY,1JF7,1KAK,1KAV,1LQF,1NL9,1NNY,1NO6,1NZ7,1OEM,1OEO,1OES,1OET,1OEU,1OEV,1ONY,1ONZ,1PH0,1PXH,1PYN,1Q1M,1Q6J,1Q6M,1Q6N,1Q6P,1Q6S,1Q6T,1QXK,1SUG,1T48,1T49,1T4J,1WAX,1XBO,2AZR,2B07,2BGD,2BGE,
2CM2,2CM3,2CM7,2CM8,2CMA,2CMB,2CMC,2CNE,2CNF,2CNG,2CNH,2CNI,2F6T,2F6V,2F6W,2F6Y,2F6Z,2F70,2F71,2FJN,2H4G,2H4K,2HB1,2HNP,2HNQ,2QBP,2QBQ,2QBR,2QBS,2VEU,2VEV,2VEW,2VEX,2VEY,2ZMM,2ZN7,3A5J,3CWE,3D9C,3EAX,
3EB1,3EU0,3I7Z,3I80,3SME,4BJO,4I8N,4QBW,4Y14,5K9V,5K9W,5KA0,5KA1,5T19,6B90,6NTP,6W30,7KEY,7KLX,7LFO,7MN9,7MNA,8DU7,8G65,8G67,8G68,8G69,8G6A,8SKL

> <UniProt (SwissProt) Recommended Name of Target Chain>
Tyrosine-protein phosphatase non-receptor type 1

> <UniProt (SwissProt) Entry Name of Target Chain>
PTN1_HUMAN

> <UniProt (SwissProt) Primary ID of Target Chain>
P18031

> <UniProt (SwissProt) Secondary ID(s) of Target Chain>
Q5TGD8 Q9BQV9 Q9NQQ4

$$$$
Molecule
  SciTegic10242319433D

 36 38  0  0  0  0            999 V2000
    3.7875   -0.9695    0.0001 C   0  0
    3.7244   -2.3025    0.0000 C   0  0
    4.9634   -3.0803   -0.0001 C   0  0
    6.1443   -2.4673   -0.0001 C   0  0
    6.2182   -1.0080    0.0000 C   0  0
    5.0925   -0.2904    0.0001 C   0  0
    2.4327   -3.0322    0.0000 C   0  0
    1.2298   -2.4482    0.0001 C   0  0
    0.9504   -1.0907    0.0002 N   0  0
   -0.4533   -1.0135    0.0003 C   0  0
   -1.0348   -2.3015    0.0002 N   0  0
   -0.0245   -3.1666    0.0000 C   0  0
   -0.1397   -4.3972   -0.0001 O   0  0
   -1.0956    0.0423    0.0005 O   0  0
    7.4822   -0.3939    0.0000 O   0  0
    7.4004    1.0310    0.0001 C   0  0
    8.7711    1.7158   -0.0001 C   0  0
    9.9385    1.0443   -0.0002 C   0  0
   11.2033    1.7896   -0.0003 C   0  0
   11.2081    3.1194   -0.0003 C   0  0
    9.9479    3.8501   -0.0002 C   0  0
    8.7940    3.1862   -0.0001 C   0  0
   10.0268   -0.6875   -0.0001 Cl  0  0
   12.7081    3.9778   -0.0005 Cl  0  0
    2.8693   -0.3821    0.0001 H   0  0
    4.9189   -4.1694   -0.0002 H   0  0
    7.0612   -3.0566   -0.0002 H   0  0
    5.1403    0.7985    0.0002 H   0  0
    2.4666   -4.1217   -0.0002 H   0  0
    1.6490   -0.2803    0.0003 H   0  0
   -2.0792   -2.5343    0.0002 H   0  0
    6.8560    1.3464   -0.8900 H   0  0
    6.8562    1.3463    0.8903 H   0  0
   12.1487    1.2471   -0.0004 H   0  0
    9.9497    4.9401   -0.0003 H   0  0
    7.8548    3.7392    0.0000 H   0  0
  1  2  2  0
  2  3  1  0
  3  4  2  0
  4  5  1  0
  5  6  2  0
  1  6  1  0
  2  7  1  0
  7  8  2  0
  8  9  1  0
  8 12  1  0
  9 10  1  0
 10 11  1  0
 11 12  1  0
 12 13  2  0
 10 14  2  0
  5 15  1  0
 15 16  1  0
 16 17  1  0
 17 18  2  0
 17 22  1  0
 18 19  1  0
 19 20  2  0
 20 21  1  0
 21 22  2  0
 18 23  1  0
 20 24  1  0
  1 25  1  0
  3 26  1  0
  4 27  1  0
  6 28  1  0
  7 29  1  0
  9 30  1  0
 11 31  1  0
 16 32  1  0
 16 33  1  0
 19 34  1  0
 21 35  1  0
 22 36  1  0
M  END
> <Name>
Molecule

> <Clean Energy>
20.0631

> <From>
www.bindingDB.org

> <BindingDB Reactant_set_id>
225668

> <Ligand InChI>
InChI=1S/C17H12Cl2N2O3/c18-12-4-3-11(14(19)8-12)9-24-13-5-1-10(2-6-13)7-15-16(22)21-17(23)20-15/h1-8H,9H2,(H2,20,21,22,23)/b15-7-

> <Ligand InChI Key>
MHLKWYRNNPNYHV-CHHVJCJISA-N

> <BindingDB MonomerID>
106798

> <BindingDB Ligand Name>
(5Z)&#8208;5&#8208;({4&#8208;[(2,4&#8208; dichlorophenyl)methoxy]phenyl}methylidene)imidazolidine&#8208; 2,4&#8208;dione (comp#j)

> <Target Name>
Tyrosine-protein phosphatase non-receptor type 1

> <Target Source Organism According to Curator or DataSource>
Homo sapiens

> <IC50 (nM)>
5000

> <pH>
6

> <Temp C>
37

> <Curation/DataSource>
Curated from the literature by BindingDB

> <Article DOI>
10.1111/cbdd.12189

> <BindingDB Entry DOI>
10.7270/Q2K64GQP

> <PMID>
23848232

> <PubChem AID>
aid1800157

> <Authors>
Ma, Y; Sun, SX; Cheng, XC; Wang, SQ; Dong, WL; Wang, RL; Xu, WR

> <Institution>
Tianjin Medical University

> <Link to Ligand in BindingDB>
http://www.bindingdb.org/bind/chemsearch/marvin/MolStructure.jsp?monomerid=106798

> <Link to Ligand-Target Pair in BindingDB>
http://www.bindingdb.org/jsp/dbsearch/PrimarySearch_ki.jsp?energyterm=kJ/mole&tag=pol&polymerid=2622&target=Tyrosine-protein+phosphatase+non-receptor+type+1&column=ki&startPg=0&Increment=50&submit=Sea
rch
http://www.bindingdb.org/jsp/dbsearch/PrimarySearch_ki.jsp?energyterm=kJ/mole&tag=r21&monomerid=106798&enzyme=Tyrosine-protein+phosphatase+non-receptor+type+1&column=ki&startPg=0&Increment=50&submit=S
earch

> <PubChem CID of Ligand>
2280259

> <PubChem SID of Ligand>
174009109

> <ZINC ID of Ligand>
ZINC15012709

> <Number of Protein Chains in Target (bigger than 1 implies a multichain complex)>
1

> <BindingDB Target Chain Sequence>
MEMEKEFEQIDKSGSWAAIYQDIRHEASDFPCRVAKLPKNKNRNRYRDVSPFDHSRIKLHQEDNDYINASLIKMEEAQRSYILTQGPLPNTCGHFWEMVWEQKSRGVVMLNRVMEKGSLKCAQYWPQKEEKEMIFEDTNLKLTLISEDIKSYYTVRQLELENLTTQETREILHFHYTTWPDFGVPESPASFLNFLFKVRE
SGSLSPEHGPVVVHCSAGIGRSGTFCLADTCLLLMDKRKDPSSVDIKKVLLEMRKFRMGLIQTADQLRFSYLAVIEGAKFIMGDSSVQDQWKELSHEDLEPPPEHIPPPPRPPKRILEPHNGKCREFFPNHQWVKEETQEDKDCPIKEEKGSPLNAAPYGIESMSQDTEVRSRVVGGSLRGAQAASPAKGEPSLPEKDED
HALSYWKPFLVNMCVATVLTAGAYLCYRFLFNSNT

> <PDB ID(s) of Target Chain>
1BZJ,1G7G,1GFY,1JF7,1KAK,1KAV,1LQF,1NL9,1NNY,1NO6,1NZ7,1OEM,1OEO,1OES,1OET,1OEU,1OEV,1ONY,1ONZ,1PH0,1PXH,1PYN,1Q1M,1Q6J,1Q6M,1Q6N,1Q6P,1Q6S,1Q6T,1QXK,1SUG,1T48,1T49,1T4J,1WAX,1XBO,2AZR,2B07,2BGD,2BGE,
2CM2,2CM3,2CM7,2CM8,2CMA,2CMB,2CMC,2CNE,2CNF,2CNG,2CNH,2CNI,2F6T,2F6V,2F6W,2F6Y,2F6Z,2F70,2F71,2FJN,2H4G,2H4K,2HB1,2HNP,2HNQ,2QBP,2QBQ,2QBR,2QBS,2VEU,2VEV,2VEW,2VEX,2VEY,2ZMM,2ZN7,3A5J,3CWE,3D9C,3EAX,
3EB1,3EU0,3I7Z,3I80,3SME,4BJO,4I8N,4QBW,4Y14,5K9V,5K9W,5KA0,5KA1,5T19,6B90,6NTP,6W30,7KEY,7KLX,7LFO,7MN9,7MNA,8DU7,8G65,8G67,8G68,8G69,8G6A,8SKL

> <UniProt (SwissProt) Recommended Name of Target Chain>
Tyrosine-protein phosphatase non-receptor type 1

> <UniProt (SwissProt) Entry Name of Target Chain>
PTN1_HUMAN

> <UniProt (SwissProt) Primary ID of Target Chain>
P18031

> <UniProt (SwissProt) Secondary ID(s) of Target Chain>
Q5TGD8 Q9BQV9 Q9NQQ4

$$$$
Molecule
  SciTegic10242319433D

 62 64  0  0  0  0            999 V2000
    5.0236   -2.3239   -0.0170 S   0  0
   -3.6576   -6.1562    0.6182 P   0  0
   -2.9564   -5.4197   -0.6968 C   0  0
    3.6259   -3.3976    0.4300 N   0  0
    4.8762   -0.5506    0.0367 C   0  0
    1.2416    1.5185    0.0997 C   0  0
    3.6889    1.5782    0.0577 C   0  0
    3.7209    0.1011    0.0573 C   0  0
    2.4682    2.3128    0.0764 O   0  0
    6.2249   -2.5755    0.8694 O   0  0
    5.4046   -2.6583   -1.4461 O   0  0
   -1.6089   -4.7685   -0.3984 C   0  0
    4.8402    2.2522    0.0149 C   0  0
   -3.9251   -5.2170    1.5922 O   0  0
    2.3305   -2.7983   -0.1282 C   0  0
    3.8305   -4.7726   -0.2237 C   0  0
    6.1812    5.6452   -0.0494 C   0  0
    4.8356    3.6527    0.0041 O   0  0
    6.1229    0.2023   -0.0015 C   0  0
   -3.8184   -4.4788   -1.2216 F   0  0
   -2.7378   -6.4254   -1.6154 F   0  0
   -4.9887   -6.8125    0.1569 O   0  0
   -2.7277   -7.2546    1.1886 O   0  0
    5.1099    6.2594   -0.0137 O   0  0
    6.1105    1.5280   -0.0083 C   0  0
   -0.4774   -5.5425    0.1366 C   0  0
   -1.4288   -3.4893   -0.7182 C   0  0
    1.1785    0.7250    1.2358 F   0  0
    1.1342    0.7364   -1.0420 F   0  0
    0.1717    2.3841    0.1249 F   0  0
    6.1849    4.1497   -0.0448 C   0  0
    0.9381   -3.5453   -0.1112 C   0  0
    7.3853    6.3427   -0.0885 O   0  0
    5.0912   -5.6418   -0.0022 C   0  0
    0.7232   -4.9697    0.2814 C   0  0
   -0.1103   -2.8592   -0.5701 C   0  0
    5.0181   -6.9344   -0.3174 C   0  0
    6.3642   -5.1198    0.4729 C   0  0
    7.4376   -5.8962    0.5890 C   0  0
    6.1909   -7.8065   -0.1731 C   0  0
    7.3479   -7.3065    0.2533 C   0  0
    2.7858   -0.4588    0.0741 H   0  0
    2.1746   -1.8682    0.4183 H   0  0
    2.5343   -2.5752   -1.1755 H   0  0
    2.9868   -5.3837    0.0969 H   0  0
    3.7697   -4.6037   -1.2988 H   0  0
    7.0743   -0.3291   -0.0246 H   0  0
   -5.6293   -6.0740   -0.2262 H   0  0
   -2.5467   -7.9788    0.4502 H   0  0
    7.0502    2.0800   -0.0313 H   0  0
   -0.6179   -6.5867    0.4159 H   0  0
   -2.2678   -2.9036   -1.0938 H   0  0
    6.6698    3.7875   -0.9514 H   0  0
    6.7323    3.7932    0.8278 H   0  0
    7.9625    6.0927    0.7523 H   0  0
    1.5518   -5.5482    0.6896 H   0  0
    0.0141   -1.8106   -0.8403 H   0  0
    4.0793   -7.3482   -0.6857 H   0  0
    6.4395   -4.0658    0.7404 H   0  0
    8.3817   -5.4755    0.9350 H   0  0
    6.1133   -8.8662   -0.4159 H   0  0
    8.2220   -7.9505    0.3499 H   0  0
  2  3  1  0
  3 12  1  0
  4  1  1  0
  5  1  1  0
  6  9  1  0
  7  8  1  0
  8  5  2  0
  9  7  1  0
 10  1  2  0
 11  1  2  0
 12 27  2  0
 13 25  1  0
 14  2  2  0
 15  4  1  0
 16  4  1  0
 17 31  1  0
 18 13  1  0
 19  5  1  0
 20  3  1  0
 21  3  1  0
 22  2  1  0
 23  2  1  0
 24 17  2  0
 25 19  2  0
 26 35  2  0
 27 36  1  0
 28  6  1  0
 29  6  1  0
 30  6  1  0
 31 18  1  0
 32 15  1  0
 33 17  1  0
 34 16  1  0
 35 32  1  0
 36 32  2  0
 37 34  2  0
 38 34  1  0
 39 38  2  0
 40 37  1  0
 41 39  1  0
 13  7  2  0
 12 26  1  0
 40 41  2  0
  8 42  1  0
 15 43  1  0
 15 44  1  0
 16 45  1  0
 16 46  1  0
 19 47  1  0
 22 48  1  0
 23 49  1  0
 25 50  1  0
 26 51  1  0
 27 52  1  0
 31 53  1  0
 31 54  1  0
 33 55  1  0
 35 56  1  0
 36 57  1  0
 37 58  1  0
 38 59  1  0
 39 60  1  0
 40 61  1  0
 41 62  1  0
M  END
> <Name>
Molecule

> <Clean Energy>
43.5569

> <From>
www.bindingDB.org

> <BindingDB Reactant_set_id>
50315590

> <Ligand InChI>
InChI=1S/C24H21F5NO9PS/c25-23(26,40(33,34)35)18-8-6-17(7-9-18)14-30(13-16-4-2-1-3-5-16)41(36,37)19-10-11-20(38-15-22(31)32)21(12-19)39-24(27,28)29/h1-12H,13-15H2,(H,31,32)(H2,33,34,35)

> <Ligand InChI Key>
QDJRZWOHRAFBEQ-UHFFFAOYSA-N

> <BindingDB MonomerID>
50171095

> <BindingDB Ligand Name>
(4-{Benzyl-[4-(difluoro-phosphono-methyl)-benzyl]-sulfamoyl}-2-trifluoromethoxy-phenoxy)-acetic acid::CHEMBL197910

> <Target Name>
Tyrosine-protein phosphatase non-receptor type 1

> <Target Source Organism According to Curator or DataSource>
Homo sapiens

> <IC50 (nM)>
5000

> <Curation/DataSource>
ChEMBL

> <Article DOI>
10.1016/j.bmcl.2005.06.061

> <BindingDB Entry DOI>
10.7270/Q2M61JSK

> <PMID>
16046123

> <Authors>
Holmes, CP; Li, X; Pan, Y; Xu, C; Bhandari, A; Moody, CM; Miguel, JA; Ferla, SW; De Francisco, MN; Frederick, BT; Zhou, S; Macher, N; Jang, L; Irvine, JD; Grove, JR

> <Institution>
Affymax, Inc.

> <Link to Ligand in BindingDB>
http://www.bindingdb.org/bind/chemsearch/marvin/MolStructure.jsp?monomerid=50171095

> <Link to Ligand-Target Pair in BindingDB>
http://www.bindingdb.org/jsp/dbsearch/PrimarySearch_ki.jsp?energyterm=kJ/mole&tag=pol&polymerid=2622&target=Tyrosine-protein+phosphatase+non-receptor+type+1&column=ki&startPg=0&Increment=50&submit=Sea
rch
http://www.bindingdb.org/jsp/dbsearch/PrimarySearch_ki.jsp?energyterm=kJ/mole&tag=r21&monomerid=50171095&enzyme=Tyrosine-protein+phosphatase+non-receptor+type+1&column=ki&startPg=0&Increment=50&submit
=Search

> <PubChem CID of Ligand>
44404335

> <PubChem SID of Ligand>
104057392

> <ChEMBL ID of Ligand>
CHEMBL197910

> <ZINC ID of Ligand>
ZINC28527950

> <Number of Protein Chains in Target (bigger than 1 implies a multichain complex)>
1

> <BindingDB Target Chain Sequence>
MEMEKEFEQIDKSGSWAAIYQDIRHEASDFPCRVAKLPKNKNRNRYRDVSPFDHSRIKLHQEDNDYINASLIKMEEAQRSYILTQGPLPNTCGHFWEMVWEQKSRGVVMLNRVMEKGSLKCAQYWPQKEEKEMIFEDTNLKLTLISEDIKSYYTVRQLELENLTTQETREILHFHYTTWPDFGVPESPASFLNFLFKVRE
SGSLSPEHGPVVVHCSAGIGRSGTFCLADTCLLLMDKRKDPSSVDIKKVLLEMRKFRMGLIQTADQLRFSYLAVIEGAKFIMGDSSVQDQWKELSHEDLEPPPEHIPPPPRPPKRILEPHNGKCREFFPNHQWVKEETQEDKDCPIKEEKGSPLNAAPYGIESMSQDTEVRSRVVGGSLRGAQAASPAKGEPSLPEKDED
HALSYWKPFLVNMCVATVLTAGAYLCYRFLFNSNT

> <PDB ID(s) of Target Chain>
1BZJ,1G7G,1GFY,1JF7,1KAK,1KAV,1LQF,1NL9,1NNY,1NO6,1NZ7,1OEM,1OEO,1OES,1OET,1OEU,1OEV,1ONY,1ONZ,1PH0,1PXH,1PYN,1Q1M,1Q6J,1Q6M,1Q6N,1Q6P,1Q6S,1Q6T,1QXK,1SUG,1T48,1T49,1T4J,1WAX,1XBO,2AZR,2B07,2BGD,2BGE,
2CM2,2CM3,2CM7,2CM8,2CMA,2CMB,2CMC,2CNE,2CNF,2CNG,2CNH,2CNI,2F6T,2F6V,2F6W,2F6Y,2F6Z,2F70,2F71,2FJN,2H4G,2H4K,2HB1,2HNP,2HNQ,2QBP,2QBQ,2QBR,2QBS,2VEU,2VEV,2VEW,2VEX,2VEY,2ZMM,2ZN7,3A5J,3CWE,3D9C,3EAX,
3EB1,3EU0,3I7Z,3I80,3SME,4BJO,4I8N,4QBW,4Y14,5K9V,5K9W,5KA0,5KA1,5T19,6B90,6NTP,6W30,7KEY,7KLX,7LFO,7MN9,7MNA,8DU7,8G65,8G67,8G68,8G69,8G6A,8SKL

> <UniProt (SwissProt) Recommended Name of Target Chain>
Tyrosine-protein phosphatase non-receptor type 1

> <UniProt (SwissProt) Entry Name of Target Chain>
PTN1_HUMAN

> <UniProt (SwissProt) Primary ID of Target Chain>
P18031

> <UniProt (SwissProt) Secondary ID(s) of Target Chain>
Q5TGD8 Q9BQV9 Q9NQQ4

$$$$
Molecule
  SciTegic10242319433D

 55 57  0  0  0  0            999 V2000
    9.8448  -12.8629   -0.0304 C   0  0
    9.8151  -11.3898    0.0125 C   0  0
    8.6395  -10.7642   -0.0141 C   0  0
    8.7725  -13.4712   -0.1207 O   0  0
    8.5429   -9.2967   -0.0004 C   0  0
    9.6838   -8.5008    0.0024 C   0  0
    9.5887   -7.1100    0.0052 C   0  0
    8.3186   -6.5168    0.0057 C   0  0
    7.1824   -7.3180    0.0034 C   0  0
    7.2895   -8.7016   -0.0007 C   0  0
   10.9180   -6.3188    0.0055 C   0  0
   10.7839   -4.8154    0.0024 C   0  0
   11.8547   -4.0215    0.0000 C   0  0
   13.2406   -4.6047    0.0000 C   0  0
   11.6727   -2.5306   -0.0025 C   0  0
    8.1250   -5.1378    0.0076 O   0  0
   15.8336  -15.5236   -0.0551 C   0  0
   15.9079  -14.0399    0.2302 C   0  0
   14.8150  -13.2856    0.3002 C   0  0
   13.5082  -13.8824    0.1344 C   0  0
   12.3745  -13.0767    0.1366 C   0  0
   11.1116  -13.6542   -0.0135 C   0  0
   11.0108  -15.0347   -0.1573 C   0  0
   12.1469  -15.8351   -0.1611 C   0  0
   13.4016  -15.2572   -0.0183 C   0  0
   14.5174  -16.0483   -0.0294 O   0  0
   16.4197  -15.7574   -1.4610 C   0  0
   16.7361  -16.2949    0.9258 C   0  0
   12.5430  -11.7062    0.2920 O   0  0
   10.7428  -10.8200    0.0654 H   0  0
    7.7246  -11.3557   -0.0469 H   0  0
   10.6668   -8.9717    0.0024 H   0  0
    6.1961   -6.8540    0.0048 H   0  0
    6.3913   -9.3192   -0.0042 H   0  0
   11.4794   -6.6069   -0.8832 H   0  0
   11.4769   -6.6034    0.8970 H   0  0
    9.7895   -4.3690    0.0020 H   0  0
   13.9745   -3.7988   -0.0021 H   0  0
   13.3760   -5.2211   -0.8887 H   0  0
   13.3774   -5.2176    0.8910 H   0  0
   12.6484   -2.0449   -0.0043 H   0  0
   11.1195   -2.2302    0.8874 H   0  0
   11.1178   -2.2333   -0.8924 H   0  0
    8.5661   -4.7232    0.8656 H   0  0
   16.8829  -13.5770    0.3824 H   0  0
   14.9044  -12.2147    0.4830 H   0  0
   10.0285  -15.4940   -0.2685 H   0  0
   12.0534  -16.9150   -0.2760 H   0  0
   16.3813  -16.8203   -1.6991 H   0  0
   17.4551  -15.4175   -1.4846 H   0  0
   15.8379  -15.1999   -2.1950 H   0  0
   16.6762  -17.3622    0.7128 H   0  0
   16.4047  -16.1097    1.9476 H   0  0
   17.7670  -15.9595    0.8122 H   0  0
   13.0139  -11.5129    1.2104 H   0  0
  1  2  1  0
  2  3  2  0
  1  4  2  0
  5  6  4  0
  6  7  4  0
  7  8  4  0
  8  9  4  0
  9 10  4  0
  5 10  4  0
 11 12  1  0
 12 13  2  0
 13 14  1  0
 13 15  1  0
  7 11  1  0
  8 16  1  0
  3  5  1  0
 17 18  1  0
 18 19  2  0
 19 20  1  0
 20 21  4  0
 21 22  4  0
 22 23  4  0
 23 24  4  0
 24 25  4  0
 20 25  4  0
 25 26  1  0
 17 26  1  0
 17 27  1  0
 17 28  1  0
 21 29  1  0
  1 22  1  0
  2 30  1  0
  3 31  1  0
  6 32  1  0
  9 33  1  0
 10 34  1  0
 11 35  1  0
 11 36  1  0
 12 37  1  0
 14 38  1  0
 14 39  1  0
 14 40  1  0
 15 41  1  0
 15 42  1  0
 15 43  1  0
 16 44  1  0
 18 45  1  0
 19 46  1  0
 23 47  1  0
 24 48  1  0
 27 49  1  0
 27 50  1  0
 27 51  1  0
 28 52  1  0
 28 53  1  0
 28 54  1  0
 29 55  1  0
M  END
> <Name>
Molecule

> <Clean Energy>
11.4139

> <From>
www.bindingDB.org

> <BindingDB Reactant_set_id>
50887902

> <Ligand InChI>
InChI=1S/C25H26O4/c1-16(2)5-8-18-15-17(6-10-21(18)26)7-11-22(27)19-9-12-23-20(24(19)28)13-14-25(3,4)29-23/h5-7,9-15,26,28H,8H2,1-4H3/b11-7+

> <Ligand InChI Key>
WRNYEZGVIHDIGH-YRNVUSSQSA-N

> <BindingDB MonomerID>
50267180

> <BindingDB Ligand Name>
CHEMBL4059903

> <Target Name>
Tyrosine-protein phosphatase non-receptor type 1

> <Target Source Organism According to Curator or DataSource>
Homo sapiens

> <IC50 (nM)>
5000

> <Curation/DataSource>
ChEMBL

> <Article DOI>
10.1021/acs.jnatprod.6b00783

> <BindingDB Entry DOI>
10.7270/Q2XD146V

> <PMID>
28140583

> <Authors>
Li, K; Ji, S; Song, W; Kuang, Y; Lin, Y; Tang, S; Cui, Z; Qiao, X; Yu, S; Ye, M

> <Institution>
Peking University

> <Link to Ligand in BindingDB>
http://www.bindingdb.org/bind/chemsearch/marvin/MolStructure.jsp?monomerid=50267180

> <Link to Ligand-Target Pair in BindingDB>
http://www.bindingdb.org/jsp/dbsearch/PrimarySearch_ki.jsp?energyterm=kJ/mole&tag=pol&polymerid=2622&target=Tyrosine-protein+phosphatase+non-receptor+type+1&column=ki&startPg=0&Increment=50&submit=Sea
rch
http://www.bindingdb.org/jsp/dbsearch/PrimarySearch_ki.jsp?energyterm=kJ/mole&tag=r21&monomerid=50267180&enzyme=Tyrosine-protein+phosphatase+non-receptor+type+1&column=ki&startPg=0&Increment=50&submit
=Search

> <PubChem CID of Ligand>
42607541

> <PubChem SID of Ligand>
404858408

> <Number of Protein Chains in Target (bigger than 1 implies a multichain complex)>
1

> <BindingDB Target Chain Sequence>
MEMEKEFEQIDKSGSWAAIYQDIRHEASDFPCRVAKLPKNKNRNRYRDVSPFDHSRIKLHQEDNDYINASLIKMEEAQRSYILTQGPLPNTCGHFWEMVWEQKSRGVVMLNRVMEKGSLKCAQYWPQKEEKEMIFEDTNLKLTLISEDIKSYYTVRQLELENLTTQETREILHFHYTTWPDFGVPESPASFLNFLFKVRE
SGSLSPEHGPVVVHCSAGIGRSGTFCLADTCLLLMDKRKDPSSVDIKKVLLEMRKFRMGLIQTADQLRFSYLAVIEGAKFIMGDSSVQDQWKELSHEDLEPPPEHIPPPPRPPKRILEPHNGKCREFFPNHQWVKEETQEDKDCPIKEEKGSPLNAAPYGIESMSQDTEVRSRVVGGSLRGAQAASPAKGEPSLPEKDED
HALSYWKPFLVNMCVATVLTAGAYLCYRFLFNSNT

> <PDB ID(s) of Target Chain>
1BZJ,1G7G,1GFY,1JF7,1KAK,1KAV,1LQF,1NL9,1NNY,1NO6,1NZ7,1OEM,1OEO,1OES,1OET,1OEU,1OEV,1ONY,1ONZ,1PH0,1PXH,1PYN,1Q1M,1Q6J,1Q6M,1Q6N,1Q6P,1Q6S,1Q6T,1QXK,1SUG,1T48,1T49,1T4J,1WAX,1XBO,2AZR,2B07,2BGD,2BGE,
2CM2,2CM3,2CM7,2CM8,2CMA,2CMB,2CMC,2CNE,2CNF,2CNG,2CNH,2CNI,2F6T,2F6V,2F6W,2F6Y,2F6Z,2F70,2F71,2FJN,2H4G,2H4K,2HB1,2HNP,2HNQ,2QBP,2QBQ,2QBR,2QBS,2VEU,2VEV,2VEW,2VEX,2VEY,2ZMM,2ZN7,3A5J,3CWE,3D9C,3EAX,
3EB1,3EU0,3I7Z,3I80,3SME,4BJO,4I8N,4QBW,4Y14,5K9V,5K9W,5KA0,5KA1,5T19,6B90,6NTP,6W30,7KEY,7KLX,7LFO,7MN9,7MNA,8DU7,8G65,8G67,8G68,8G69,8G6A,8SKL

> <UniProt (SwissProt) Recommended Name of Target Chain>
Tyrosine-protein phosphatase non-receptor type 1

> <UniProt (SwissProt) Entry Name of Target Chain>
PTN1_HUMAN

> <UniProt (SwissProt) Primary ID of Target Chain>
P18031

> <UniProt (SwissProt) Secondary ID(s) of Target Chain>
Q5TGD8 Q9BQV9 Q9NQQ4

$$$$
11596309
  SciTegic10242319433D

 57 59  0  0  0  0            999 V2000
    7.0186    0.0114   -0.1082 O   0  0
    7.1465    4.0199   -0.1987 O   0  0
   11.9571   -0.0688    0.0535 O   0  0
    1.0040   -2.1932   -0.3322 O   0  0
    5.8620    0.7317    0.3046 C   0  0  1  0  0  0
    5.7707    2.1060   -0.3421 C   0  0
    4.5678   -0.0323    0.1221 C   0  0
    8.2559    0.6540   -0.0714 C   0  0
    8.3027    1.9924   -0.0728 C   0  0
    7.0771    2.7872   -0.1506 C   0  0
    9.5351   -0.1358   -0.0361 C   0  0
    3.3933    0.6143    0.0979 C   0  0
    9.4353   -1.6932   -0.0483 C   0  0
    2.1376   -0.1496   -0.0648 C   0  0
    4.6017   -1.4873   -0.0108 C   0  0
    9.5715    2.6850   -0.0187 C   0  0
   10.7072    0.5444    0.0143 C   0  0
   10.7054    2.0018    0.0205 C   0  0
    2.1849   -1.4734   -0.1824 C   0  0
    0.7808    0.5233   -0.0992 C   0  0
    3.4692   -2.1722   -0.1551 C   0  0
   10.7715   -2.4154   -0.0315 C   0  0
    0.8533    2.0224   -0.0035 C   0  0
   10.8851   -3.7431   -0.0292 C   0  0
   -0.2792    2.7331    0.0034 C   0  0
   12.2558   -4.3633   -0.0103 C   0  0
    9.6686   -4.6209   -0.0440 C   0  0
   -0.2295    4.2305    0.0947 C   0  0
   -1.6162    2.0385   -0.0804 C   0  0
   12.0227   -0.6766    0.9072 H   0  0
    0.3867   -2.0314    0.5016 H   0  0
    5.9710    0.9018    1.3757 H   0  0
    5.5601    2.0013   -1.4064 H   0  0
    4.9779    2.6858    0.1305 H   0  0
    3.3644    1.6993    0.1978 H   0  0
    8.8706   -2.0039    0.8307 H   0  0
    8.8995   -1.9918   -0.9493 H   0  0
    5.5564   -2.0130    0.0082 H   0  0
    9.5945    3.7747   -0.0102 H   0  0
   11.6533    2.5385    0.0582 H   0  0
    0.2890    0.2607   -1.0358 H   0  0
    0.1902    0.1522    0.7384 H   0  0
    3.4993   -3.2573   -0.2532 H   0  0
   11.6829   -1.8177   -0.0208 H   0  0
    1.8189    2.5242    0.0595 H   0  0
   12.1637   -5.4494   -0.0109 H   0  0
   12.7869   -4.0448    0.8867 H   0  0
   12.8111   -4.0458   -0.8929 H   0  0
    9.9747   -5.6670   -0.0395 H   0  0
    9.0842   -4.4178   -0.9415 H   0  0
    9.0617   -4.4167    0.8381 H   0  0
   -1.2438    4.6294    0.0867 H   0  0
    0.3237    4.6287   -0.7560 H   0  0
    0.2678    4.5224    1.0197 H   0  0
   -2.4139    2.7810   -0.0610 H   0  0
   -1.7289    1.3627    0.7674 H   0  0
   -1.6729    1.4692   -1.0083 H   0  0
  5  1  1  0
  1  8  1  0
  2 10  2  0
  3 17  1  0
  4 19  1  0
  5  6  1  0
  5  7  1  0
  6 10  1  0
  7 12  2  0
  7 15  1  0
  8  9  2  0
  8 11  1  0
  9 10  1  0
  9 16  1  0
 11 13  1  0
 11 17  2  0
 12 14  1  0
 13 22  1  0
 14 19  2  0
 14 20  1  0
 15 21  2  0
 16 18  2  0
 17 18  1  0
 19 21  1  0
 20 23  1  0
 22 24  2  0
 23 25  2  0
 24 26  1  0
 24 27  1  0
 25 28  1  0
 25 29  1  0
  3 30  1  0
  4 31  1  0
  5 32  1  0
  6 33  1  0
  6 34  1  0
 12 35  1  0
 13 36  1  0
 13 37  1  0
 15 38  1  0
 16 39  1  0
 18 40  1  0
 20 41  1  0
 20 42  1  0
 21 43  1  0
 22 44  1  0
 23 45  1  0
 26 46  1  0
 26 47  1  0
 26 48  1  0
 27 49  1  0
 27 50  1  0
 27 51  1  0
 28 52  1  0
 28 53  1  0
 28 54  1  0
 29 55  1  0
 29 56  1  0
 29 57  1  0
M  END
> <Name>
11596309

> <Clean Energy>
20.0821

> <From>
www.bindingDB.org

> <BindingDB Reactant_set_id>
50887904

> <Ligand InChI>
InChI=1S/C25H28O4/c1-15(2)5-7-17-13-18(8-11-21(17)26)24-14-23(28)20-10-12-22(27)19(25(20)29-24)9-6-16(3)4/h5-6,8,10-13,24,26-27H,7,9,14H2,1-4H3/t24-/m0/s1

> <Ligand InChI Key>
CUFAXDWQDQQKFF-DEOSSOPVSA-N

> <BindingDB MonomerID>
69609

> <BindingDB Ligand Name>
(2S)-7-hydroxy-2-[4-hydroxy-3-(3-methylbut-2-enyl)phenyl]-8-(3-methylbut-2-enyl)-2,3-dihydrochromen-4-one::(2S)-7-hydroxy-2-[4-hydroxy-3-(3-methylbut-2-enyl)phenyl]-8-(3-methylbut-2-enyl)-3,4-dihydro-
2H-1-benzopyran-4-one::(2S)-7-hydroxy-2-[4-hydroxy-3-(3-methylbut-2-enyl)phenyl]-8-(3-methylbut-2-enyl)chroman-4-one::(2S)-8-(3-methylbut-2-enyl)-2-[3-(3-methylbut-2-enyl)-4-oxidanyl-phenyl]-7-oxidany
l-2,3-dihydrochromen-4-one::MLS000697605::SMR000470942::cid_11596309::glabrol

> <Target Name>
Tyrosine-protein phosphatase non-receptor type 1

> <Target Source Organism According to Curator or DataSource>
Homo sapiens

> <IC50 (nM)>
5000

> <Curation/DataSource>
ChEMBL

> <Article DOI>
10.1021/acs.jnatprod.6b00783

> <BindingDB Entry DOI>
10.7270/Q2XD146V

> <PMID>
28140583

> <Authors>
Li, K; Ji, S; Song, W; Kuang, Y; Lin, Y; Tang, S; Cui, Z; Qiao, X; Yu, S; Ye, M

> <Institution>
Peking University

> <Link to Ligand in BindingDB>
http://www.bindingdb.org/bind/chemsearch/marvin/MolStructure.jsp?monomerid=69609

> <Link to Ligand-Target Pair in BindingDB>
http://www.bindingdb.org/jsp/dbsearch/PrimarySearch_ki.jsp?energyterm=kJ/mole&tag=pol&polymerid=2622&target=Tyrosine-protein+phosphatase+non-receptor+type+1&column=ki&startPg=0&Increment=50&submit=Sea
rch
http://www.bindingdb.org/jsp/dbsearch/PrimarySearch_ki.jsp?energyterm=kJ/mole&tag=r21&monomerid=69609&enzyme=Tyrosine-protein+phosphatase+non-receptor+type+1&column=ki&startPg=0&Increment=50&submit=Se
arch

> <PubChem CID of Ligand>
11596309

> <PubChem SID of Ligand>
252647774

> <ZINC ID of Ligand>
ZINC05854698

> <Number of Protein Chains in Target (bigger than 1 implies a multichain complex)>
1

> <BindingDB Target Chain Sequence>
MEMEKEFEQIDKSGSWAAIYQDIRHEASDFPCRVAKLPKNKNRNRYRDVSPFDHSRIKLHQEDNDYINASLIKMEEAQRSYILTQGPLPNTCGHFWEMVWEQKSRGVVMLNRVMEKGSLKCAQYWPQKEEKEMIFEDTNLKLTLISEDIKSYYTVRQLELENLTTQETREILHFHYTTWPDFGVPESPASFLNFLFKVRE
SGSLSPEHGPVVVHCSAGIGRSGTFCLADTCLLLMDKRKDPSSVDIKKVLLEMRKFRMGLIQTADQLRFSYLAVIEGAKFIMGDSSVQDQWKELSHEDLEPPPEHIPPPPRPPKRILEPHNGKCREFFPNHQWVKEETQEDKDCPIKEEKGSPLNAAPYGIESMSQDTEVRSRVVGGSLRGAQAASPAKGEPSLPEKDED
HALSYWKPFLVNMCVATVLTAGAYLCYRFLFNSNT

> <PDB ID(s) of Target Chain>
1BZJ,1G7G,1GFY,1JF7,1KAK,1KAV,1LQF,1NL9,1NNY,1NO6,1NZ7,1OEM,1OEO,1OES,1OET,1OEU,1OEV,1ONY,1ONZ,1PH0,1PXH,1PYN,1Q1M,1Q6J,1Q6M,1Q6N,1Q6P,1Q6S,1Q6T,1QXK,1SUG,1T48,1T49,1T4J,1WAX,1XBO,2AZR,2B07,2BGD,2BGE,
2CM2,2CM3,2CM7,2CM8,2CMA,2CMB,2CMC,2CNE,2CNF,2CNG,2CNH,2CNI,2F6T,2F6V,2F6W,2F6Y,2F6Z,2F70,2F71,2FJN,2H4G,2H4K,2HB1,2HNP,2HNQ,2QBP,2QBQ,2QBR,2QBS,2VEU,2VEV,2VEW,2VEX,2VEY,2ZMM,2ZN7,3A5J,3CWE,3D9C,3EAX,
3EB1,3EU0,3I7Z,3I80,3SME,4BJO,4I8N,4QBW,4Y14,5K9V,5K9W,5KA0,5KA1,5T19,6B90,6NTP,6W30,7KEY,7KLX,7LFO,7MN9,7MNA,8DU7,8G65,8G67,8G68,8G69,8G6A,8SKL

> <UniProt (SwissProt) Recommended Name of Target Chain>
Tyrosine-protein phosphatase non-receptor type 1

> <UniProt (SwissProt) Entry Name of Target Chain>
PTN1_HUMAN

> <UniProt (SwissProt) Primary ID of Target Chain>
P18031

> <UniProt (SwissProt) Secondary ID(s) of Target Chain>
Q5TGD8 Q9BQV9 Q9NQQ4

$$$$
Molecule
  SciTegic10242319433D

 55 58  0  0  0  0            999 V2000
   -1.1999  -20.9293   -0.3053 C   0  0
   -1.2759  -19.5106    0.2529 C   0  0  2  0  0  0
   -2.4330  -18.7992   -0.2003 O   0  0
   -2.5100  -21.6047   -0.0469 C   0  0
   -3.7346  -20.8082    0.0255 C   0  0
   -3.6779  -19.4223   -0.0811 C   0  0
   -6.1317  -20.7210    0.2003 C   0  0
   -4.9560  -21.4565    0.1658 C   0  0
   -6.0891  -19.3381    0.0827 C   0  0
   -4.8676  -18.6872   -0.0591 C   0  0
   -4.8561  -17.2415   -0.1766 C   0  0
   -6.0036  -16.5604   -0.1718 C   0  0
   -7.3531  -17.2484   -0.0469 C   0  0
   -7.2666  -18.6442    0.1129 O   0  0
   -8.1955  -16.9454   -1.3025 C   0  0
   -8.1278  -16.6434    1.1406 C   0  0
    0.0406  -18.7622    0.0610 C   0  0
    1.2612  -19.4456    0.0559 C   0  0
    2.4557  -18.7370   -0.0830 C   0  0
    2.4240  -17.3547   -0.2126 C   0  0
    1.2126  -16.6754   -0.2096 C   0  0
    0.0224  -17.3788   -0.0708 C   0  0
    3.6181  -16.6515   -0.3445 O   0  0
    3.8250  -19.4030   -0.0942 C   0  0
    3.8131  -20.9056   -0.0189 C   0  0
    4.9829  -21.5573   -0.0014 C   0  0
    5.0157  -23.0566    0.0675 C   0  0
    6.2839  -20.7905   -0.0521 C   0  0
   -2.5781  -22.8375   -0.0222 O   0  0
   -0.3983  -21.4778    0.1893 H   0  0
   -1.0085  -20.8938   -1.3778 H   0  0
   -1.3994  -19.6221    1.3302 H   0  0
   -7.0888  -21.2286    0.3198 H   0  0
   -4.9901  -22.5429    0.2487 H   0  0
   -3.9086  -16.7106   -0.2689 H   0  0
   -5.9721  -15.4745   -0.2603 H   0  0
   -9.1647  -17.4368   -1.2177 H   0  0
   -7.6769  -17.3160   -2.1867 H   0  0
   -8.3411  -15.8688   -1.3918 H   0  0
   -9.0961  -17.1355    1.2319 H   0  0
   -8.2773  -15.5769    0.9720 H   0  0
   -7.5586  -16.7895    2.0587 H   0  0
    1.2794  -20.5304    0.1603 H   0  0
    1.1955  -15.5907   -0.3161 H   0  0
   -0.9276  -16.8444   -0.0653 H   0  0
    4.2181  -16.8181    0.5009 H   0  0
    4.3304  -19.1167   -1.0166 H   0  0
    4.3880  -19.0281    0.7606 H   0  0
    2.8712  -21.4527    0.0207 H   0  0
    6.0507  -23.3981    0.0721 H   0  0
    4.5004  -23.4721   -0.7985 H   0  0
    4.5197  -23.3899    0.9792 H   0  0
    7.1196  -21.4899   -0.0286 H   0  0
    6.3460  -20.1222    0.8068 H   0  0
    6.3260  -20.2056   -0.9709 H   0  0
 12 13  1  0
 13 14  1  0
  1  4  1  0
 13 15  1  0
  9  7  4  0
 13 16  1  0
  2  3  1  0
  2 17  1  0
  7  8  4  0
 17 18  4  0
  8  5  4  0
 18 19  4  0
  9 10  4  0
 19 20  4  0
  3  6  1  0
 20 21  4  0
  5  4  1  0
 21 22  4  0
 22 17  4  0
  2  1  1  0
 20 23  1  0
 19 24  1  0
  5  6  4  0
 24 25  1  0
  6 10  4  0
 25 26  2  0
  9 14  1  0
 26 27  1  0
 10 11  1  0
 26 28  1  0
 11 12  2  0
  4 29  2  0
  1 30  1  0
  1 31  1  0
  2 32  1  0
  7 33  1  0
  8 34  1  0
 11 35  1  0
 12 36  1  0
 15 37  1  0
 15 38  1  0
 15 39  1  0
 16 40  1  0
 16 41  1  0
 16 42  1  0
 18 43  1  0
 21 44  1  0
 22 45  1  0
 23 46  1  0
 24 47  1  0
 24 48  1  0
 25 49  1  0
 27 50  1  0
 27 51  1  0
 27 52  1  0
 28 53  1  0
 28 54  1  0
 28 55  1  0
M  END
> <Name>
Molecule

> <Clean Energy>
27.0527

> <From>
www.bindingDB.org

> <BindingDB Reactant_set_id>
50887905

> <Ligand InChI>
InChI=1S/C25H26O4/c1-15(2)5-6-16-13-17(7-9-20(16)26)23-14-21(27)18-8-10-22-19(24(18)28-23)11-12-25(3,4)29-22/h5,7-13,23,26H,6,14H2,1-4H3/t23-/m0/s1

> <Ligand InChI Key>
NEIURIYDQMKXIG-QHCPKHFHSA-N

> <BindingDB MonomerID>
50267182

> <BindingDB Ligand Name>
Shinflavanone

> <Target Name>
Tyrosine-protein phosphatase non-receptor type 1

> <Target Source Organism According to Curator or DataSource>
Homo sapiens

> <IC50 (nM)>
5000

> <Curation/DataSource>
ChEMBL

> <Article DOI>
10.1021/acs.jnatprod.6b00783

> <BindingDB Entry DOI>
10.7270/Q2XD146V

> <PMID>
28140583

> <Authors>
Li, K; Ji, S; Song, W; Kuang, Y; Lin, Y; Tang, S; Cui, Z; Qiao, X; Yu, S; Ye, M

> <Institution>
Peking University

> <Link to Ligand in BindingDB>
http://www.bindingdb.org/bind/chemsearch/marvin/MolStructure.jsp?monomerid=50267182

> <Link to Ligand-Target Pair in BindingDB>
http://www.bindingdb.org/jsp/dbsearch/PrimarySearch_ki.jsp?energyterm=kJ/mole&tag=pol&polymerid=2622&target=Tyrosine-protein+phosphatase+non-receptor+type+1&column=ki&startPg=0&Increment=50&submit=Sea
rch
http://www.bindingdb.org/jsp/dbsearch/PrimarySearch_ki.jsp?energyterm=kJ/mole&tag=r21&monomerid=50267182&enzyme=Tyrosine-protein+phosphatase+non-receptor+type+1&column=ki&startPg=0&Increment=50&submit
=Search

> <PubChem CID of Ligand>
197678

> <PubChem SID of Ligand>
404858410

> <Number of Protein Chains in Target (bigger than 1 implies a multichain complex)>
1

> <BindingDB Target Chain Sequence>
MEMEKEFEQIDKSGSWAAIYQDIRHEASDFPCRVAKLPKNKNRNRYRDVSPFDHSRIKLHQEDNDYINASLIKMEEAQRSYILTQGPLPNTCGHFWEMVWEQKSRGVVMLNRVMEKGSLKCAQYWPQKEEKEMIFEDTNLKLTLISEDIKSYYTVRQLELENLTTQETREILHFHYTTWPDFGVPESPASFLNFLFKVRE
SGSLSPEHGPVVVHCSAGIGRSGTFCLADTCLLLMDKRKDPSSVDIKKVLLEMRKFRMGLIQTADQLRFSYLAVIEGAKFIMGDSSVQDQWKELSHEDLEPPPEHIPPPPRPPKRILEPHNGKCREFFPNHQWVKEETQEDKDCPIKEEKGSPLNAAPYGIESMSQDTEVRSRVVGGSLRGAQAASPAKGEPSLPEKDED
HALSYWKPFLVNMCVATVLTAGAYLCYRFLFNSNT

> <PDB ID(s) of Target Chain>
1BZJ,1G7G,1GFY,1JF7,1KAK,1KAV,1LQF,1NL9,1NNY,1NO6,1NZ7,1OEM,1OEO,1OES,1OET,1OEU,1OEV,1ONY,1ONZ,1PH0,1PXH,1PYN,1Q1M,1Q6J,1Q6M,1Q6N,1Q6P,1Q6S,1Q6T,1QXK,1SUG,1T48,1T49,1T4J,1WAX,1XBO,2AZR,2B07,2BGD,2BGE,
2CM2,2CM3,2CM7,2CM8,2CMA,2CMB,2CMC,2CNE,2CNF,2CNG,2CNH,2CNI,2F6T,2F6V,2F6W,2F6Y,2F6Z,2F70,2F71,2FJN,2H4G,2H4K,2HB1,2HNP,2HNQ,2QBP,2QBQ,2QBR,2QBS,2VEU,2VEV,2VEW,2VEX,2VEY,2ZMM,2ZN7,3A5J,3CWE,3D9C,3EAX,
3EB1,3EU0,3I7Z,3I80,3SME,4BJO,4I8N,4QBW,4Y14,5K9V,5K9W,5KA0,5KA1,5T19,6B90,6NTP,6W30,7KEY,7KLX,7LFO,7MN9,7MNA,8DU7,8G65,8G67,8G68,8G69,8G6A,8SKL

> <UniProt (SwissProt) Recommended Name of Target Chain>
Tyrosine-protein phosphatase non-receptor type 1

> <UniProt (SwissProt) Entry Name of Target Chain>
PTN1_HUMAN

> <UniProt (SwissProt) Primary ID of Target Chain>
P18031

> <UniProt (SwissProt) Secondary ID(s) of Target Chain>
Q5TGD8 Q9BQV9 Q9NQQ4

$$$$
Molecule
  SciTegic10242319433D

 55 58  0  0  0  0            999 V2000
    7.5501  -13.3056    0.0059 C   0  0
    7.5754  -14.6933    0.0240 C   0  0
    8.7784  -15.3747   -0.0228 C   0  0
    9.9656  -14.6648   -0.0790 C   0  0
    9.9646  -13.2684   -0.0897 C   0  0
    8.7503  -12.5735   -0.0528 C   0  0
    8.7965  -11.0166   -0.0717 C   0  0
    7.4300  -10.3587   -0.0448 C   0  0
    7.2470   -9.0398   -0.0292 C   0  0
    8.4147   -8.0996   -0.0380 C   0  0
    5.8449   -8.4944    0.0002 C   0  0
   11.1971  -12.5925   -0.1286 O   0  0
   12.3635  -13.3001    0.3055 C   0  0  1  0  0  0
   12.4918  -14.6807   -0.3372 C   0  0
   11.2120  -15.4078   -0.1624 C   0  0
   11.1867  -16.6421   -0.2154 O   0  0
   13.6874  -12.5533    0.1792 C   0  0
   14.8673  -13.2889    0.1058 C   0  0
   16.0979  -12.6480    0.0213 C   0  0
   16.1606  -11.2623    0.0144 C   0  0
   14.9825  -10.5235    0.0885 C   0  0
   13.7474  -11.1640    0.1719 C   0  0
   17.3728  -10.6182   -0.0621 O   0  0
   18.6157  -11.3014   -0.1923 C   0  0
   18.4990  -12.8106   -0.1471 C   0  0
   17.3214  -13.4227   -0.0516 C   0  0
   19.2664  -10.9019   -1.5302 C   0  0
   19.5892  -10.8373    0.9100 C   0  0
    6.2867  -12.7200    0.0534 O   0  0
    6.6400  -15.2505    0.0756 H   0  0
    8.7914  -16.4646   -0.0156 H   0  0
    9.3562  -10.6797    0.8009 H   0  0
    9.3114  -10.7000   -0.9787 H   0  0
    6.5493  -11.0009   -0.0377 H   0  0
    8.0539   -7.0712   -0.0226 H   0  0
    9.0066   -8.2629   -0.9387 H   0  0
    9.0338   -8.2801    0.8408 H   0  0
    5.8784   -7.4050    0.0098 H   0  0
    5.3351   -8.8497    0.8957 H   0  0
    5.3042   -8.8330   -0.8837 H   0  0
   12.2234  -13.4797    1.3715 H   0  0
   12.7092  -14.5716   -1.3997 H   0  0
   13.2972  -15.2356    0.1439 H   0  0
   14.8257  -14.3781    0.1146 H   0  0
   15.0266   -9.4344    0.0813 H   0  0
   12.8306  -10.5773    0.2312 H   0  0
   19.4061  -13.4131   -0.1940 H   0  0
   17.2763  -14.5115   -0.0281 H   0  0
   20.2193  -11.4196   -1.6402 H   0  0
   19.4347   -9.8250   -1.5456 H   0  0
   18.6064  -11.1779   -2.3526 H   0  0
   20.5373  -11.3643    0.8036 H   0  0
   19.1611  -11.0547    1.8886 H   0  0
   19.7582   -9.7644    0.8180 H   0  0
    5.7237  -13.0335   -0.7756 H   0  0
  1  2  4  0
  2  3  4  0
  3  4  4  0
  4  5  4  0
  5  6  4  0
  6  1  4  0
  6  7  1  0
  7  8  1  0
  8  9  2  0
  9 10  1  0
  9 11  1  0
  5 12  1  0
 13 12  1  0
 13 14  1  0
 15 14  1  0
  4 15  1  0
 15 16  2  0
 13 17  1  0
 17 18  4  0
 18 19  4  0
 19 20  4  0
 20 21  4  0
 21 22  4  0
 22 17  4  0
 20 23  1  0
 23 24  1  0
 24 25  1  0
 25 26  2  0
 19 26  1  0
 24 27  1  0
 24 28  1  0
  1 29  1  0
  2 30  1  0
  3 31  1  0
  7 32  1  0
  7 33  1  0
  8 34  1  0
 10 35  1  0
 10 36  1  0
 10 37  1  0
 11 38  1  0
 11 39  1  0
 11 40  1  0
 13 41  1  0
 14 42  1  0
 14 43  1  0
 18 44  1  0
 21 45  1  0
 22 46  1  0
 25 47  1  0
 26 48  1  0
 27 49  1  0
 27 50  1  0
 27 51  1  0
 28 52  1  0
 28 53  1  0
 28 54  1  0
 29 55  1  0
M  END
> <Name>
Molecule

> <Clean Energy>
30.9055

> <From>
www.bindingDB.org

> <BindingDB Reactant_set_id>
50887906

> <Ligand InChI>
InChI=1S/C25H26O4/c1-15(2)5-7-18-20(26)9-8-19-21(27)14-23(28-24(18)19)16-6-10-22-17(13-16)11-12-25(3,4)29-22/h5-6,8-13,23,26H,7,14H2,1-4H3/t23-/m0/s1

> <Ligand InChI Key>
VSUQUSVBOASRIA-QHCPKHFHSA-N

> <BindingDB MonomerID>
50267183

> <BindingDB Ligand Name>
CHEMBL2437376

> <Target Name>
Tyrosine-protein phosphatase non-receptor type 1

> <Target Source Organism According to Curator or DataSource>
Homo sapiens

> <IC50 (nM)>
5000

> <Curation/DataSource>
ChEMBL

> <Article DOI>
10.1021/acs.jnatprod.6b00783

> <BindingDB Entry DOI>
10.7270/Q2XD146V

> <PMID>
28140583

> <Authors>
Li, K; Ji, S; Song, W; Kuang, Y; Lin, Y; Tang, S; Cui, Z; Qiao, X; Yu, S; Ye, M

> <Institution>
Peking University

> <Link to Ligand in BindingDB>
http://www.bindingdb.org/bind/chemsearch/marvin/MolStructure.jsp?monomerid=50267183

> <Link to Ligand-Target Pair in BindingDB>
http://www.bindingdb.org/jsp/dbsearch/PrimarySearch_ki.jsp?energyterm=kJ/mole&tag=pol&polymerid=2622&target=Tyrosine-protein+phosphatase+non-receptor+type+1&column=ki&startPg=0&Increment=50&submit=Sea
rch
http://www.bindingdb.org/jsp/dbsearch/PrimarySearch_ki.jsp?energyterm=kJ/mole&tag=r21&monomerid=50267183&enzyme=Tyrosine-protein+phosphatase+non-receptor+type+1&column=ki&startPg=0&Increment=50&submit
=Search

> <PubChem CID of Ligand>
73355595

> <PubChem SID of Ligand>
404858411

> <Number of Protein Chains in Target (bigger than 1 implies a multichain complex)>
1

> <BindingDB Target Chain Sequence>
MEMEKEFEQIDKSGSWAAIYQDIRHEASDFPCRVAKLPKNKNRNRYRDVSPFDHSRIKLHQEDNDYINASLIKMEEAQRSYILTQGPLPNTCGHFWEMVWEQKSRGVVMLNRVMEKGSLKCAQYWPQKEEKEMIFEDTNLKLTLISEDIKSYYTVRQLELENLTTQETREILHFHYTTWPDFGVPESPASFLNFLFKVRE
SGSLSPEHGPVVVHCSAGIGRSGTFCLADTCLLLMDKRKDPSSVDIKKVLLEMRKFRMGLIQTADQLRFSYLAVIEGAKFIMGDSSVQDQWKELSHEDLEPPPEHIPPPPRPPKRILEPHNGKCREFFPNHQWVKEETQEDKDCPIKEEKGSPLNAAPYGIESMSQDTEVRSRVVGGSLRGAQAASPAKGEPSLPEKDED
HALSYWKPFLVNMCVATVLTAGAYLCYRFLFNSNT

> <PDB ID(s) of Target Chain>
1BZJ,1G7G,1GFY,1JF7,1KAK,1KAV,1LQF,1NL9,1NNY,1NO6,1NZ7,1OEM,1OEO,1OES,1OET,1OEU,1OEV,1ONY,1ONZ,1PH0,1PXH,1PYN,1Q1M,1Q6J,1Q6M,1Q6N,1Q6P,1Q6S,1Q6T,1QXK,1SUG,1T48,1T49,1T4J,1WAX,1XBO,2AZR,2B07,2BGD,2BGE,
2CM2,2CM3,2CM7,2CM8,2CMA,2CMB,2CMC,2CNE,2CNF,2CNG,2CNH,2CNI,2F6T,2F6V,2F6W,2F6Y,2F6Z,2F70,2F71,2FJN,2H4G,2H4K,2HB1,2HNP,2HNQ,2QBP,2QBQ,2QBR,2QBS,2VEU,2VEV,2VEW,2VEX,2VEY,2ZMM,2ZN7,3A5J,3CWE,3D9C,3EAX,
3EB1,3EU0,3I7Z,3I80,3SME,4BJO,4I8N,4QBW,4Y14,5K9V,5K9W,5KA0,5KA1,5T19,6B90,6NTP,6W30,7KEY,7KLX,7LFO,7MN9,7MNA,8DU7,8G65,8G67,8G68,8G69,8G6A,8SKL

> <UniProt (SwissProt) Recommended Name of Target Chain>
Tyrosine-protein phosphatase non-receptor type 1

> <UniProt (SwissProt) Entry Name of Target Chain>
PTN1_HUMAN

> <UniProt (SwissProt) Primary ID of Target Chain>
P18031

> <UniProt (SwissProt) Secondary ID(s) of Target Chain>
Q5TGD8 Q9BQV9 Q9NQQ4

$$$$
Molecule
  SciTegic10242319433D

 57 58  0  0  0  0            999 V2000
   -5.2934  -21.1380    0.0001 C   0  0
   -5.2415  -22.4869    0.0003 C   0  0
   -3.9103  -23.1569   -0.0004 C   0  0
   -2.7749  -22.4423    0.0002 C   0  0
   -2.8839  -20.9804    0.0002 C   0  0
   -4.0619  -20.3744    0.0006 C   0  0
   -6.4814  -20.4132    0.0005 O   0  0
   -1.4138  -23.1652   -0.0002 C   0  0
   -1.4129  -24.4010   -0.0004 O   0  0
   -0.0497  -22.4751   -0.0001 C   0  0
    0.1073  -21.1516    0.0001 C   0  0
    1.4035  -20.4607    0.0002 C   0  0
    2.5703  -21.1163   -0.0001 C   0  0
    3.8346  -20.3334   -0.0001 C   0  0
    3.7936  -19.0032    0.0001 C   0  0
    2.5201  -18.3057    0.0004 C   0  0
    1.3865  -18.9970    0.0004 C   0  0
    4.9792  -18.2769    0.0001 O   0  0
   -3.8627  -24.5474   -0.0005 O   0  0
    5.1889  -20.9922   -0.0004 C   0  0
    5.1188  -22.4878   -0.0003 C   0  0
    6.2556  -23.1885   -0.0004 C   0  0
    6.2159  -24.6872   -0.0003 C   0  0
    7.5874  -22.4785   -0.0005 C   0  0
   -6.4926  -23.4086   -0.0003 C   0  0
   -7.8269  -22.6969   -0.0003 C   0  0
   -8.9840  -23.3576    0.0000 C   0  0
  -10.2737  -22.5867    0.0000 C   0  0
   -9.0111  -24.8597    0.0005 C   0  0
   -1.9752  -20.3785   -0.0001 H   0  0
   -4.1054  -19.2853    0.0013 H   0  0
   -6.5228  -19.8088    0.8581 H   0  0
    0.8435  -23.0997   -0.0002 H   0  0
   -0.7926  -20.5365    0.0004 H   0  0
    2.5934  -22.2061   -0.0003 H   0  0
    2.4948  -17.2160    0.0006 H   0  0
    0.4330  -18.4688    0.0006 H   0  0
    5.5367  -18.5159    0.8572 H   0  0
   -3.3556  -24.8807   -0.8574 H   0  0
    5.7297  -20.6712   -0.8907 H   0  0
    5.7301  -20.6711    0.8896 H   0  0
    4.1549  -22.9967   -0.0002 H   0  0
    7.2333  -25.0782   -0.0003 H   0  0
    5.6926  -25.0374   -0.8901 H   0  0
    5.6928  -25.0372    0.8897 H   0  0
    8.3918  -23.2140   -0.0005 H   0  0
    7.6669  -21.8540    0.8893 H   0  0
    7.6668  -21.8541   -0.8904 H   0  0
   -6.4469  -24.0358   -0.8906 H   0  0
   -6.4472  -24.0363    0.8897 H   0  0
   -7.8426  -21.6070   -0.0006 H   0  0
  -11.1132  -23.2819    0.0003 H   0  0
  -10.3226  -21.9594   -0.8901 H   0  0
  -10.3223  -21.9588    0.8897 H   0  0
  -10.0449  -25.2050    0.0007 H   0  0
   -8.5039  -25.2325    0.8905 H   0  0
   -8.5041  -25.2331   -0.8893 H   0  0
  1  7  1  0
 14 15  2  0
  3  4  2  0
 15 16  1  0
  4  8  1  0
 16 17  2  0
 17 12  1  0
 15 18  1  0
  8  9  2  0
  3 19  1  0
  4  5  1  0
 14 20  1  0
  8 10  1  0
 20 21  1  0
  2  3  1  0
 21 22  2  0
 10 11  2  0
 22 23  1  0
  5  6  2  0
 22 24  1  0
 11 12  1  0
  2 25  1  0
  6  1  1  0
 25 26  1  0
 12 13  2  0
 26 27  2  0
  1  2  2  0
 27 28  1  0
 13 14  1  0
 27 29  1  0
  5 30  1  0
  6 31  1  0
  7 32  1  0
 10 33  1  0
 11 34  1  0
 13 35  1  0
 16 36  1  0
 17 37  1  0
 18 38  1  0
 19 39  1  0
 20 40  1  0
 20 41  1  0
 21 42  1  0
 23 43  1  0
 23 44  1  0
 23 45  1  0
 24 46  1  0
 24 47  1  0
 24 48  1  0
 25 49  1  0
 25 50  1  0
 26 51  1  0
 28 52  1  0
 28 53  1  0
 28 54  1  0
 29 55  1  0
 29 56  1  0
 29 57  1  0
M  END
> <Name>
Molecule

> <Clean Energy>
5.70739

> <From>
www.bindingDB.org

> <BindingDB Reactant_set_id>
50887907

> <Ligand InChI>
InChI=1S/C25H28O4/c1-16(2)5-9-19-15-18(7-12-22(19)26)8-13-23(27)21-11-14-24(28)20(25(21)29)10-6-17(3)4/h5-8,11-15,26,28-29H,9-10H2,1-4H3/b13-8+

> <Ligand InChI Key>
CBGDCCSHOGQUSW-MDWZMJQESA-N

> <BindingDB MonomerID>
50253160

> <BindingDB Ligand Name>
Kanzonol C

> <Target Name>
Tyrosine-protein phosphatase non-receptor type 1

> <Target Source Organism According to Curator or DataSource>
Homo sapiens

> <IC50 (nM)>
5000

> <Curation/DataSource>
ChEMBL

> <Article DOI>
10.1021/acs.jnatprod.6b00783

> <BindingDB Entry DOI>
10.7270/Q2XD146V

> <PMID>
28140583

> <Authors>
Li, K; Ji, S; Song, W; Kuang, Y; Lin, Y; Tang, S; Cui, Z; Qiao, X; Yu, S; Ye, M

> <Institution>
Peking University

> <Link to Ligand in BindingDB>
http://www.bindingdb.org/bind/chemsearch/marvin/MolStructure.jsp?monomerid=50253160

> <Link to Ligand-Target Pair in BindingDB>
http://www.bindingdb.org/jsp/dbsearch/PrimarySearch_ki.jsp?energyterm=kJ/mole&tag=pol&polymerid=2622&target=Tyrosine-protein+phosphatase+non-receptor+type+1&column=ki&startPg=0&Increment=50&submit=Sea
rch
http://www.bindingdb.org/jsp/dbsearch/PrimarySearch_ki.jsp?energyterm=kJ/mole&tag=r21&monomerid=50253160&enzyme=Tyrosine-protein+phosphatase+non-receptor+type+1&column=ki&startPg=0&Increment=50&submit
=Search

> <PubChem CID of Ligand>
5316802

> <PubChem SID of Ligand>
104105759

> <ZINC ID of Ligand>
ZINC95540160

> <Number of Protein Chains in Target (bigger than 1 implies a multichain complex)>
1

> <BindingDB Target Chain Sequence>
MEMEKEFEQIDKSGSWAAIYQDIRHEASDFPCRVAKLPKNKNRNRYRDVSPFDHSRIKLHQEDNDYINASLIKMEEAQRSYILTQGPLPNTCGHFWEMVWEQKSRGVVMLNRVMEKGSLKCAQYWPQKEEKEMIFEDTNLKLTLISEDIKSYYTVRQLELENLTTQETREILHFHYTTWPDFGVPESPASFLNFLFKVRE
SGSLSPEHGPVVVHCSAGIGRSGTFCLADTCLLLMDKRKDPSSVDIKKVLLEMRKFRMGLIQTADQLRFSYLAVIEGAKFIMGDSSVQDQWKELSHEDLEPPPEHIPPPPRPPKRILEPHNGKCREFFPNHQWVKEETQEDKDCPIKEEKGSPLNAAPYGIESMSQDTEVRSRVVGGSLRGAQAASPAKGEPSLPEKDED
HALSYWKPFLVNMCVATVLTAGAYLCYRFLFNSNT

> <PDB ID(s) of Target Chain>
1BZJ,1G7G,1GFY,1JF7,1KAK,1KAV,1LQF,1NL9,1NNY,1NO6,1NZ7,1OEM,1OEO,1OES,1OET,1OEU,1OEV,1ONY,1ONZ,1PH0,1PXH,1PYN,1Q1M,1Q6J,1Q6M,1Q6N,1Q6P,1Q6S,1Q6T,1QXK,1SUG,1T48,1T49,1T4J,1WAX,1XBO,2AZR,2B07,2BGD,2BGE,
2CM2,2CM3,2CM7,2CM8,2CMA,2CMB,2CMC,2CNE,2CNF,2CNG,2CNH,2CNI,2F6T,2F6V,2F6W,2F6Y,2F6Z,2F70,2F71,2FJN,2H4G,2H4K,2HB1,2HNP,2HNQ,2QBP,2QBQ,2QBR,2QBS,2VEU,2VEV,2VEW,2VEX,2VEY,2ZMM,2ZN7,3A5J,3CWE,3D9C,3EAX,
3EB1,3EU0,3I7Z,3I80,3SME,4BJO,4I8N,4QBW,4Y14,5K9V,5K9W,5KA0,5KA1,5T19,6B90,6NTP,6W30,7KEY,7KLX,7LFO,7MN9,7MNA,8DU7,8G65,8G67,8G68,8G69,8G6A,8SKL

> <UniProt (SwissProt) Recommended Name of Target Chain>
Tyrosine-protein phosphatase non-receptor type 1

> <UniProt (SwissProt) Entry Name of Target Chain>
PTN1_HUMAN

> <UniProt (SwissProt) Primary ID of Target Chain>
P18031

> <UniProt (SwissProt) Secondary ID(s) of Target Chain>
Q5TGD8 Q9BQV9 Q9NQQ4

$$$$
Molecule
  SciTegic10242319433D

 50 52  0  0  0  0            999 V2000
   -3.6083  -23.3971    0.0453 C   0  0
   -3.6217  -24.8161   -0.0132 C   0  0
   -2.4965  -25.5042   -0.0661 C   0  0
   -1.1715  -24.8663   -0.0657 C   0  0
   -1.1207  -23.4738    0.0575 C   0  0
   -2.4442  -22.7477    0.0818 C   0  0
   -2.5675  -26.8908   -0.1312 O   0  0
   -0.1398  -25.9479   -0.2346 O   0  0
    1.1807  -25.7082   -0.7371 C   0  0
    2.1802  -26.6971   -0.2481 C   0  0
    3.5332  -26.4667   -0.4909 O   0  0
    1.8279  -27.6464    0.4574 O   0  0
    0.0406  -22.5153    0.2053 O   0  0
    1.2631  -23.0586    0.6826 C   0  0
    2.5615  -22.3431    0.4349 C   0  0
    3.7875  -23.1329    0.5947 C   0  0
    4.9795  -22.5905    0.3864 C   0  0
    5.0801  -21.1955    0.0038 C   0  0
    3.9739  -20.4592   -0.1460 C   0  0
    2.6379  -21.0638    0.0750 C   0  0
   -4.9129  -22.7109    0.0479 C   0  0
   -5.0214  -21.3813    0.0637 C   0  0
   -6.3691  -20.7660    0.0483 C   0  0
   -7.4572  -21.5326    0.0181 C   0  0
   -7.3307  -22.9812    0.0026 C   0  0
   -6.1248  -23.5405    0.0158 C   0  0
   -6.5308  -19.2780    0.0570 C   0  0
   -6.3361  -18.8212   -1.2295 F   0  0
   -5.5644  -18.7023    0.8509 F   0  0
   -7.8079  -18.9366    0.4596 F   0  0
    6.4386  -20.5973   -0.2088 C   0  0
    6.8007  -19.9492    0.9531 F   0  0
    7.3669  -21.5899   -0.4627 F   0  0
    6.3947  -19.6572   -1.2138 F   0  0
   -4.5750  -25.3446   -0.0145 H   0  0
   -2.4483  -21.6588    0.1308 H   0  0
   -3.0643  -27.2566    0.7184 H   0  0
    1.1511  -25.7545   -1.8257 H   0  0
    1.4956  -24.7129   -0.4236 H   0  0
    3.6996  -26.4148   -1.5263 H   0  0
    1.1611  -23.1560    1.7634 H   0  0
    1.3611  -24.0479    0.2357 H   0  0
    3.7175  -24.1801    0.8889 H   0  0
    5.8813  -23.1917    0.5024 H   0  0
    4.0545  -19.4104   -0.4317 H   0  0
    1.7330  -20.4702   -0.0552 H   0  0
   -4.1295  -20.7553    0.0878 H   0  0
   -8.4455  -21.0732    0.0049 H   0  0
   -8.2228  -23.6071   -0.0199 H   0  0
   -6.0342  -24.6267    0.0027 H   0  0
 16 17  2  0
 17 18  1  0
  8  9  1  0
 18 19  2  0
  4  5  2  0
 19 20  1  0
 20 15  2  0
  9 10  1  0
  2  3  2  0
 21 22  2  0
 10 11  1  0
 22 23  1  0
  5  6  1  0
 23 24  2  0
 10 12  2  0
 24 25  1  0
  6  1  2  0
 25 26  2  0
 26 21  1  0
  1 21  1  0
  5 13  1  0
 23 27  1  0
  1  2  1  0
 27 28  1  0
 13 14  1  0
 27 29  1  0
  3  7  1  0
 27 30  1  0
 14 15  1  0
 18 31  1  0
  3  4  1  0
 31 32  1  0
 15 16  1  0
 31 33  1  0
  4  8  1  0
 31 34  1  0
  2 35  1  0
  6 36  1  0
  7 37  1  0
  9 38  1  0
  9 39  1  0
 11 40  1  0
 14 41  1  0
 14 42  1  0
 16 43  1  0
 17 44  1  0
 19 45  1  0
 20 46  1  0
 22 47  1  0
 24 48  1  0
 25 49  1  0
 26 50  1  0
M  END
> <Name>
Molecule

> <Clean Energy>
70.1095

> <From>
www.bindingDB.org

> <BindingDB Reactant_set_id>
50849151

> <Ligand InChI>
InChI=1S/C23H16F6O5/c24-22(25,26)16-6-4-13(5-7-16)11-33-19-10-15(9-18(30)21(19)34-12-20(31)32)14-2-1-3-17(8-14)23(27,28)29/h1-10,30H,11-12H2,(H,31,32)

> <Ligand InChI Key>
BWSKSWFFFBIMRW-UHFFFAOYSA-N

> <BindingDB MonomerID>
50220221

> <BindingDB Ligand Name>
CHEMBL237915::[3-hydroxy-3'-trifluoromethyl-5-(4-trifluoromethyl-benzyloxy)-biphenyl-4-yloxy]-acetic acid

> <Target Name>
Tyrosine-protein phosphatase non-receptor type 1

> <Target Source Organism According to Curator or DataSource>
Homo sapiens

> <IC50 (nM)>
5000

> <Curation/DataSource>
ChEMBL

> <Article DOI>
10.1016/j.bmcl.2007.08.019

> <BindingDB Entry DOI>
10.7270/Q2BK1D55

> <PMID>
17728130

> <Authors>
Bhattarai, BR; Shrestha, S; Ham, SW; Kim, KR; Cheon, HG; Lee, KH; Cho, H

> <Institution>
Inha University

> <Link to Ligand in BindingDB>
http://www.bindingdb.org/bind/chemsearch/marvin/MolStructure.jsp?monomerid=50220221

> <Link to Ligand-Target Pair in BindingDB>
http://www.bindingdb.org/jsp/dbsearch/PrimarySearch_ki.jsp?energyterm=kJ/mole&tag=pol&polymerid=2622&target=Tyrosine-protein+phosphatase+non-receptor+type+1&column=ki&startPg=0&Increment=50&submit=Sea
rch
http://www.bindingdb.org/jsp/dbsearch/PrimarySearch_ki.jsp?energyterm=kJ/mole&tag=r21&monomerid=50220221&enzyme=Tyrosine-protein+phosphatase+non-receptor+type+1&column=ki&startPg=0&Increment=50&submit
=Search

> <PubChem CID of Ligand>
44434677

> <PubChem SID of Ligand>
104093262

> <ChEMBL ID of Ligand>
CHEMBL237915

> <ZINC ID of Ligand>
ZINC28825959

> <Number of Protein Chains in Target (bigger than 1 implies a multichain complex)>
1

> <BindingDB Target Chain Sequence>
MEMEKEFEQIDKSGSWAAIYQDIRHEASDFPCRVAKLPKNKNRNRYRDVSPFDHSRIKLHQEDNDYINASLIKMEEAQRSYILTQGPLPNTCGHFWEMVWEQKSRGVVMLNRVMEKGSLKCAQYWPQKEEKEMIFEDTNLKLTLISEDIKSYYTVRQLELENLTTQETREILHFHYTTWPDFGVPESPASFLNFLFKVRE
SGSLSPEHGPVVVHCSAGIGRSGTFCLADTCLLLMDKRKDPSSVDIKKVLLEMRKFRMGLIQTADQLRFSYLAVIEGAKFIMGDSSVQDQWKELSHEDLEPPPEHIPPPPRPPKRILEPHNGKCREFFPNHQWVKEETQEDKDCPIKEEKGSPLNAAPYGIESMSQDTEVRSRVVGGSLRGAQAASPAKGEPSLPEKDED
HALSYWKPFLVNMCVATVLTAGAYLCYRFLFNSNT

> <PDB ID(s) of Target Chain>
1BZJ,1G7G,1GFY,1JF7,1KAK,1KAV,1LQF,1NL9,1NNY,1NO6,1NZ7,1OEM,1OEO,1OES,1OET,1OEU,1OEV,1ONY,1ONZ,1PH0,1PXH,1PYN,1Q1M,1Q6J,1Q6M,1Q6N,1Q6P,1Q6S,1Q6T,1QXK,1SUG,1T48,1T49,1T4J,1WAX,1XBO,2AZR,2B07,2BGD,2BGE,
2CM2,2CM3,2CM7,2CM8,2CMA,2CMB,2CMC,2CNE,2CNF,2CNG,2CNH,2CNI,2F6T,2F6V,2F6W,2F6Y,2F6Z,2F70,2F71,2FJN,2H4G,2H4K,2HB1,2HNP,2HNQ,2QBP,2QBQ,2QBR,2QBS,2VEU,2VEV,2VEW,2VEX,2VEY,2ZMM,2ZN7,3A5J,3CWE,3D9C,3EAX,
3EB1,3EU0,3I7Z,3I80,3SME,4BJO,4I8N,4QBW,4Y14,5K9V,5K9W,5KA0,5KA1,5T19,6B90,6NTP,6W30,7KEY,7KLX,7LFO,7MN9,7MNA,8DU7,8G65,8G67,8G68,8G69,8G6A,8SKL

> <UniProt (SwissProt) Recommended Name of Target Chain>
Tyrosine-protein phosphatase non-receptor type 1

> <UniProt (SwissProt) Entry Name of Target Chain>
PTN1_HUMAN

> <UniProt (SwissProt) Primary ID of Target Chain>
P18031

> <UniProt (SwissProt) Secondary ID(s) of Target Chain>
Q5TGD8 Q9BQV9 Q9NQQ4

$$$$
Molecule
  SciTegic10242319433D

 49 50  0  0  0  0            999 V2000
    6.0650   -1.1212   -0.0826 N   0  0
    6.0846   -2.4515    0.4055 C   0  0  2  0  0  0
    7.4077   -3.2346    0.1469 C   0  0
    8.5365   -2.4857   -0.0741 C   0  0
    8.4364   -1.0810   -0.1105 N   0  0
    7.2299   -0.4199   -0.1726 C   0  0
    7.1997    1.1292   -0.3889 S   0  0
    7.3356   -4.7874    0.2152 C   0  0
    6.2611   -5.3522    0.4383 O   0  0
    8.4411   -5.6081    0.0460 O   0  0
    4.7865   -3.1671    0.1280 C   0  0
    3.6410   -2.4918    0.2042 C   0  0
    2.3531   -3.1728    0.0335 C   0  0
    1.2216   -2.4742    0.1114 C   0  0
   -0.0722   -3.1528   -0.0096 C   0  0
   -0.1220   -4.4746   -0.1882 C   0  0
    1.1264   -5.2418   -0.2742 C   0  0
    2.3028   -4.6235   -0.1705 C   0  0
    8.0540   -6.9820    0.1704 C   0  0
    9.9931   -2.9841   -0.3016 C   0  0
   10.1270   -3.8768   -1.5599 C   0  0
   10.8903   -1.7496   -0.5104 C   0  0
   10.5311   -3.7435    0.9389 C   0  0
   -1.3559   -5.1466   -0.2921 O   0  0
   -2.4642   -4.2387   -0.1748 C   0  0
    5.1410   -0.6701   -0.3788 H   0  0
    6.0753   -2.3229    1.4879 H   0  0
    9.3365   -0.5029   -0.0891 H   0  0
    4.7858   -4.2256   -0.1320 H   0  0
    3.6609   -1.4190    0.3959 H   0  0
    1.2577   -1.3958    0.2654 H   0  0
   -0.9958   -2.5766    0.0464 H   0  0
    1.0914   -6.3210   -0.4234 H   0  0
    3.2275   -5.1968   -0.2373 H   0  0
    8.9277   -7.6197    0.0363 H   0  0
    7.3104   -7.2207   -0.5900 H   0  0
    7.6291   -7.1522    1.1596 H   0  0
   11.1632   -4.1964   -1.6706 H   0  0
    9.8258   -3.3107   -2.4413 H   0  0
    9.4865   -4.7525   -1.4546 H   0  0
   11.9192   -2.0709   -0.6724 H   0  0
   10.8440   -1.1126    0.3729 H   0  0
   10.5436   -1.1906   -1.3796 H   0  0
   11.5505   -4.0781    0.7468 H   0  0
    9.8975   -4.6074    1.1397 H   0  0
   10.5240   -3.0795    1.8033 H   0  0
   -3.3990   -4.7927   -0.2597 H   0  0
   -2.4103   -3.4941   -0.9691 H   0  0
   -2.4249   -3.7398    0.7936 H   0  0
  1  2  1  0
  1  6  1  0
  2  3  1  0
  3  4  2  0
  4  5  1  0
  5  6  1  0
  6  7  2  0
  3  8  1  0
  8  9  2  0
  8 10  1  0
  2 11  1  0
 11 12  2  0
 12 13  1  0
 13 14  2  0
 14 15  1  0
 15 16  2  0
 16 17  1  0
 17 18  2  0
 18 13  1  0
 10 19  1  0
  4 20  1  0
 20 21  1  0
 20 22  1  0
 20 23  1  0
 16 24  1  0
 24 25  1  0
  1 26  1  0
  2 27  1  0
  5 28  1  0
 11 29  1  0
 12 30  1  0
 14 31  1  0
 15 32  1  0
 17 33  1  0
 18 34  1  0
 19 35  1  0
 19 36  1  0
 19 37  1  0
 21 38  1  0
 21 39  1  0
 21 40  1  0
 22 41  1  0
 22 42  1  0
 22 43  1  0
 23 44  1  0
 23 45  1  0
 23 46  1  0
 25 47  1  0
 25 48  1  0
 25 49  1  0
M  END
> <Name>
Molecule

> <Clean Energy>
46.3816

> <From>
www.bindingDB.org

> <BindingDB Reactant_set_id>
51323632

> <Ligand InChI>
InChI=1S/C19H24N2O3S/c1-19(2,3)16-15(17(22)24-5)14(20-18(25)21-16)11-8-12-6-9-13(23-4)10-7-12/h6-11,14H,1-5H3,(H2,20,21,25)/b11-8+/t14-/m0/s1

> <Ligand InChI Key>
RIOKNCDKCNZTHY-ZHZWZMEUSA-N

> <BindingDB MonomerID>
50535620

> <BindingDB Ligand Name>
CHEMBL4583694

> <Target Name>
Tyrosine-protein phosphatase non-receptor type 1

> <Target Source Organism According to Curator or DataSource>
Homo sapiens

> <IC50 (nM)>
5030

> <Curation/DataSource>
ChEMBL

> <Article DOI>
10.1016/j.bmcl.2019.06.011

> <BindingDB Entry DOI>
10.7270/Q2280C4B

> <PMID>
31221555

> <Authors>
Jin, J; Ye, X; Boateng, D; Dai, K; Ye, F; Du, P; Yu, H

> <Institution>
Zhejiang Sci-Tech University

> <Link to Ligand in BindingDB>
http://www.bindingdb.org/bind/chemsearch/marvin/MolStructure.jsp?monomerid=50535620

> <Link to Ligand-Target Pair in BindingDB>
http://www.bindingdb.org/jsp/dbsearch/PrimarySearch_ki.jsp?energyterm=kJ/mole&tag=pol&polymerid=2622&target=Tyrosine-protein+phosphatase+non-receptor+type+1&column=ki&startPg=0&Increment=50&submit=Sea
rch
http://www.bindingdb.org/jsp/dbsearch/PrimarySearch_ki.jsp?energyterm=kJ/mole&tag=r21&monomerid=50535620&enzyme=Tyrosine-protein+phosphatase+non-receptor+type+1&column=ki&startPg=0&Increment=50&submit
=Search

> <PubChem CID of Ligand>
155562197

> <PubChem SID of Ligand>
440744202

> <Number of Protein Chains in Target (bigger than 1 implies a multichain complex)>
1

> <BindingDB Target Chain Sequence>
MEMEKEFEQIDKSGSWAAIYQDIRHEASDFPCRVAKLPKNKNRNRYRDVSPFDHSRIKLHQEDNDYINASLIKMEEAQRSYILTQGPLPNTCGHFWEMVWEQKSRGVVMLNRVMEKGSLKCAQYWPQKEEKEMIFEDTNLKLTLISEDIKSYYTVRQLELENLTTQETREILHFHYTTWPDFGVPESPASFLNFLFKVRE
SGSLSPEHGPVVVHCSAGIGRSGTFCLADTCLLLMDKRKDPSSVDIKKVLLEMRKFRMGLIQTADQLRFSYLAVIEGAKFIMGDSSVQDQWKELSHEDLEPPPEHIPPPPRPPKRILEPHNGKCREFFPNHQWVKEETQEDKDCPIKEEKGSPLNAAPYGIESMSQDTEVRSRVVGGSLRGAQAASPAKGEPSLPEKDED
HALSYWKPFLVNMCVATVLTAGAYLCYRFLFNSNT

> <PDB ID(s) of Target Chain>
1BZJ,1G7G,1GFY,1JF7,1KAK,1KAV,1LQF,1NL9,1NNY,1NO6,1NZ7,1OEM,1OEO,1OES,1OET,1OEU,1OEV,1ONY,1ONZ,1PH0,1PXH,1PYN,1Q1M,1Q6J,1Q6M,1Q6N,1Q6P,1Q6S,1Q6T,1QXK,1SUG,1T48,1T49,1T4J,1WAX,1XBO,2AZR,2B07,2BGD,2BGE,
2CM2,2CM3,2CM7,2CM8,2CMA,2CMB,2CMC,2CNE,2CNF,2CNG,2CNH,2CNI,2F6T,2F6V,2F6W,2F6Y,2F6Z,2F70,2F71,2FJN,2H4G,2H4K,2HB1,2HNP,2HNQ,2QBP,2QBQ,2QBR,2QBS,2VEU,2VEV,2VEW,2VEX,2VEY,2ZMM,2ZN7,3A5J,3CWE,3D9C,3EAX,
3EB1,3EU0,3I7Z,3I80,3SME,4BJO,4I8N,4QBW,4Y14,5K9V,5K9W,5KA0,5KA1,5T19,6B90,6NTP,6W30,7KEY,7KLX,7LFO,7MN9,7MNA,8DU7,8G65,8G67,8G68,8G69,8G6A,8SKL

> <UniProt (SwissProt) Recommended Name of Target Chain>
Tyrosine-protein phosphatase non-receptor type 1

> <UniProt (SwissProt) Entry Name of Target Chain>
PTN1_HUMAN

> <UniProt (SwissProt) Primary ID of Target Chain>
P18031

> <UniProt (SwissProt) Secondary ID(s) of Target Chain>
Q5TGD8 Q9BQV9 Q9NQQ4

$$$$
Molecule
  SciTegic10242319433D

 81 85  0  0  0  0            999 V2000
    9.3986   -0.2699    0.3069 C   0  0
    9.3647   -1.7260   -0.2892 C   0  0  2  0  0  0
   10.5216   -2.5801    0.2835 C   0  0
   10.7347    0.4535   -0.1414 C   0  0
   11.9481   -0.2937    0.4526 C   0  0  1  0  0  0
   11.8751   -1.8192   -0.0940 C   0  0  1  0  0  0
   13.1022   -2.6447    0.4172 C   0  0
   14.4172   -2.0227   -0.1551 C   0  0
   13.3471    0.2926   -0.0809 C   0  0  2  0  0  0
   14.6327   -0.5899    0.3733 C   0  0  2  0  0  0
   15.0044    2.2512    0.4854 C   0  0
   13.5255    1.7740    0.4203 C   0  0
   16.0636    1.4996    0.1640 C   0  0
   15.9021    0.0352   -0.3130 C   0  0  1  0  0  0
   17.2131   -0.7779    0.0034 C   0  0
   18.3270   -0.0642   -0.7877 C   0  0
   10.5145   -3.9684   -0.3851 C   0  0
   10.2910   -2.8376    1.8024 C   0  0
   11.8442   -0.0967    2.0060 C   0  0
   14.9454   -0.6828    1.9147 C   0  0
   15.7338    0.0260   -1.8767 C   0  0
   19.8794    1.3464    0.6335 C   0  0
   20.0978    0.2100    1.4060 O   0  0
   20.6872    2.2820    0.7120 O   0  0
    9.5034   -1.6239   -1.7035 O   0  0
   17.4833    1.9040    0.6229 C   0  0  1  0  0  0
   18.6489    1.3861   -0.2830 C   0  0  2  0  0  0
   18.8216    2.3314   -1.5321 C   0  0
   19.1224    3.8038   -1.0841 C   0  0
   17.9507    4.3723   -0.2509 C   0  0
   17.7495    3.4166    1.0027 C   0  0
   16.7175    4.5193   -1.1677 C   0  0
   18.3272    5.7770    0.2557 C   0  0
    8.5402    0.2928   -0.0602 H   0  0
    9.3612   -0.3219    1.3950 H   0  0
    8.4110   -2.1961   -0.0493 H   0  0
   10.7295    1.4822    0.2191 H   0  0
   10.8026    0.4495   -1.2293 H   0  0
   11.9366   -1.7806   -1.1816 H   0  0
   13.1307   -2.6177    1.5065 H   0  0
   13.0116   -3.6776    0.0811 H   0  0
   15.2627   -2.6425    0.1433 H   0  0
   14.3528   -1.9944   -1.2428 H   0  0
   13.3144    0.3061   -1.1703 H   0  0
   15.1916    3.2725    0.8170 H   0  0
   12.9837    2.4321   -0.2589 H   0  0
   13.0975    1.8505    1.4198 H   0  0
   17.4284   -0.7566    1.0717 H   0  0
   17.1114   -1.8118   -0.3267 H   0  0
   18.0182   -0.0018   -1.8312 H   0  0
   19.2356   -0.6615   -0.7122 H   0  0
   10.6723   -3.8564   -1.4577 H   0  0
    9.5540   -4.4525   -0.2083 H   0  0
   11.3122   -4.5796    0.0371 H   0  0
   10.2854   -1.8871    2.3358 H   0  0
   11.0922   -3.4667    2.1906 H   0  0
    9.3340   -3.3395    1.9452 H   0  0
   12.6772   -0.6031    2.4935 H   0  0
   10.9044   -0.5173    2.3640 H   0  0
   11.8786    0.9671    2.2411 H   0  0
   15.1025    0.3188    2.3151 H   0  0
   15.8443   -1.2800    2.0683 H   0  0
   14.1061   -1.1514    2.4287 H   0  0
   16.6189    0.4613   -2.3405 H   0  0
   14.8556    0.6104   -2.1515 H   0  0
   15.6099   -1.0000   -2.2232 H   0  0
   19.2812    0.0611    2.0491 H   0  0
    8.7124   -1.0537   -2.0930 H   0  0
   17.6202    1.3677    1.5620 H   0  0
   19.6486    1.9683   -2.1423 H   0  0
   17.9032    2.3179   -2.1190 H   0  0
   20.0296    3.8154   -0.4799 H   0  0
   19.2664    4.4243   -1.9686 H   0  0
   16.8980    3.7805    1.5777 H   0  0
   18.6492    3.4625    1.6164 H   0  0
   15.8825    4.9197   -0.5929 H   0  0
   16.4457    3.5439   -1.5711 H   0  0
   16.9524    5.1984   -1.9874 H   0  0
   17.5050    6.1839    0.8443 H   0  0
   18.5226    6.4302   -0.5947 H   0  0
   19.2207    5.7124    0.8767 H   0  0
 27 16  1  0
  6  7  1  0
  3 17  1  0
  7  8  1  0
  3 18  1  0
 10  8  1  0
  9 10  1  0
  5 19  1  0
  6  3  1  0
  5  4  1  0
 10 20  1  0
  5  6  1  0
 14 21  1  0
  9 12  1  0
 27 22  1  0
 10 14  1  0
 13 11  2  0
 22 23  1  0
 22 24  2  0
 11 12  1  0
  2 25  1  0
 26 27  1  0
 14 13  1  0
  2  1  1  0
  1  4  1  0
  2  3  1  0
  5  9  1  0
 26 13  1  0
 26 31  1  0
 27 28  1  0
 28 29  1  0
 29 30  1  0
 30 31  1  0
 14 15  1  0
 30 32  1  0
 15 16  1  0
 30 33  1  0
  1 34  1  0
  1 35  1  0
  2 36  1  0
  4 37  1  0
  4 38  1  0
  6 39  1  0
  7 40  1  0
  7 41  1  0
  8 42  1  0
  8 43  1  0
  9 44  1  0
 11 45  1  0
 12 46  1  0
 12 47  1  0
 15 48  1  0
 15 49  1  0
 16 50  1  0
 16 51  1  0
 17 52  1  0
 17 53  1  0
 17 54  1  0
 18 55  1  0
 18 56  1  0
 18 57  1  0
 19 58  1  0
 19 59  1  0
 19 60  1  0
 20 61  1  0
 20 62  1  0
 20 63  1  0
 21 64  1  0
 21 65  1  0
 21 66  1  0
 23 67  1  0
 25 68  1  0
 26 69  1  0
 28 70  1  0
 28 71  1  0
 29 72  1  0
 29 73  1  0
 31 74  1  0
 31 75  1  0
 32 76  1  0
 32 77  1  0
 32 78  1  0
 33 79  1  0
 33 80  1  0
 33 81  1  0
M  END
> <Name>
Molecule

> <Clean Energy>
102.905

> <From>
www.bindingDB.org

> <BindingDB Reactant_set_id>
50428424

> <Ligand InChI>
InChI=1S/C30H48O3/c1-25(2)14-16-30(24(32)33)17-15-28(6)19(20(30)18-25)8-9-22-27(5)12-11-23(31)26(3,4)21(27)10-13-29(22,28)7/h8,20-23,31H,9-18H2,1-7H3,(H,32,33)/t20-,21-,22+,23+,27-,28+,29+,30-/m0/s1

> <Ligand InChI Key>
MIJYXULNPSFWEK-KDQGZELNSA-N

> <BindingDB MonomerID>
50241532

> <BindingDB Ligand Name>
(4aS,6aS,6bR,8aR,10R,12aR,12bR,14bS)-10-hydroxy-2,2,6a,6b,9,9,12a-heptamethyl-1,2,3,4,4a,5,6,6a,6b,7,8,8a,9,10,11,12,12a,12b,13,14b-icosahydropicene-4a-carboxylic acid::3-epioleanolic acid::3alpha-Hyd
roxyolean-12-en-28-oic Acid::CHEMBL486382::epi-Oleanolic acid

> <Target Name>
Tyrosine-protein phosphatase non-receptor type 1

> <Target Source Organism According to Curator or DataSource>
Homo sapiens

> <IC50 (nM)>
5050

> <Curation/DataSource>
ChEMBL

> <Article DOI>
10.1016/j.bmc.2008.07.080

> <BindingDB Entry DOI>
10.7270/Q2HX1CH7

> <PMID>
18707891

> <Authors>
Zhang, YN; Zhang, W; Hong, D; Shi, L; Shen, Q; Li, JY; Li, J; Hu, LH

> <Institution>
Chinese Academy of Sciences

> <Link to Ligand in BindingDB>
http://www.bindingdb.org/bind/chemsearch/marvin/MolStructure.jsp?monomerid=50241532

> <Link to Ligand-Target Pair in BindingDB>
http://www.bindingdb.org/jsp/dbsearch/PrimarySearch_ki.jsp?energyterm=kJ/mole&tag=pol&polymerid=2622&target=Tyrosine-protein+phosphatase+non-receptor+type+1&column=ki&startPg=0&Increment=50&submit=Sea
rch
http://www.bindingdb.org/jsp/dbsearch/PrimarySearch_ki.jsp?energyterm=kJ/mole&tag=r21&monomerid=50241532&enzyme=Tyrosine-protein+phosphatase+non-receptor+type+1&column=ki&startPg=0&Increment=50&submit
=Search

> <PubChem CID of Ligand>
11869658

> <PubChem SID of Ligand>
104098807

> <ChEBI ID of Ligand>
68103

> <ChEMBL ID of Ligand>
CHEMBL486382

> <ZINC ID of Ligand>
ZINC38545497

> <Number of Protein Chains in Target (bigger than 1 implies a multichain complex)>
1

> <BindingDB Target Chain Sequence>
MEMEKEFEQIDKSGSWAAIYQDIRHEASDFPCRVAKLPKNKNRNRYRDVSPFDHSRIKLHQEDNDYINASLIKMEEAQRSYILTQGPLPNTCGHFWEMVWEQKSRGVVMLNRVMEKGSLKCAQYWPQKEEKEMIFEDTNLKLTLISEDIKSYYTVRQLELENLTTQETREILHFHYTTWPDFGVPESPASFLNFLFKVRE
SGSLSPEHGPVVVHCSAGIGRSGTFCLADTCLLLMDKRKDPSSVDIKKVLLEMRKFRMGLIQTADQLRFSYLAVIEGAKFIMGDSSVQDQWKELSHEDLEPPPEHIPPPPRPPKRILEPHNGKCREFFPNHQWVKEETQEDKDCPIKEEKGSPLNAAPYGIESMSQDTEVRSRVVGGSLRGAQAASPAKGEPSLPEKDED
HALSYWKPFLVNMCVATVLTAGAYLCYRFLFNSNT

> <PDB ID(s) of Target Chain>
1BZJ,1G7G,1GFY,1JF7,1KAK,1KAV,1LQF,1NL9,1NNY,1NO6,1NZ7,1OEM,1OEO,1OES,1OET,1OEU,1OEV,1ONY,1ONZ,1PH0,1PXH,1PYN,1Q1M,1Q6J,1Q6M,1Q6N,1Q6P,1Q6S,1Q6T,1QXK,1SUG,1T48,1T49,1T4J,1WAX,1XBO,2AZR,2B07,2BGD,2BGE,
2CM2,2CM3,2CM7,2CM8,2CMA,2CMB,2CMC,2CNE,2CNF,2CNG,2CNH,2CNI,2F6T,2F6V,2F6W,2F6Y,2F6Z,2F70,2F71,2FJN,2H4G,2H4K,2HB1,2HNP,2HNQ,2QBP,2QBQ,2QBR,2QBS,2VEU,2VEV,2VEW,2VEX,2VEY,2ZMM,2ZN7,3A5J,3CWE,3D9C,3EAX,
3EB1,3EU0,3I7Z,3I80,3SME,4BJO,4I8N,4QBW,4Y14,5K9V,5K9W,5KA0,5KA1,5T19,6B90,6NTP,6W30,7KEY,7KLX,7LFO,7MN9,7MNA,8DU7,8G65,8G67,8G68,8G69,8G6A,8SKL

> <UniProt (SwissProt) Recommended Name of Target Chain>
Tyrosine-protein phosphatase non-receptor type 1

> <UniProt (SwissProt) Entry Name of Target Chain>
PTN1_HUMAN

> <UniProt (SwissProt) Primary ID of Target Chain>
P18031

> <UniProt (SwissProt) Secondary ID(s) of Target Chain>
Q5TGD8 Q9BQV9 Q9NQQ4

$$$$
Molecule
  SciTegic10242319433D

 28 30  0  0  0  0            999 V2000
    3.0805   -2.0996    0.0000 C   0  0
    4.2199   -1.4053    0.0003 C   0  0
    1.7463   -1.2833    0.0000 C   0  0
    3.0341    0.7720    0.0005 C   0  0
    4.2576    0.0386    0.0005 C   0  0
    3.1607   -3.6809   -0.0001 C   0  0
    1.7794    0.0592    0.0001 C   0  0
    4.3305   -4.3789   -0.0002 C   0  0
    1.9160   -4.4849   -0.0003 C   0  0
    3.0477    2.0076    0.0006 O   0  0
    5.3405    0.6339    0.0008 O   0  0
    4.3067   -5.8520   -0.0003 C   0  0
    1.9186   -5.8127   -0.0004 C   0  0
    5.9203   -3.6637    0.0000 Cl  0  0
    3.1661   -6.5290   -0.0005 C   0  0
    0.4233   -6.6776   -0.0006 Cl  0  0
    0.4104   -1.9236   -0.0003 C   0  0
    0.5395    0.8433    0.0001 C   0  0
   -0.6440    0.2411   -0.0002 C   0  0
   -0.7098   -1.2066   -0.0004 C   0  0
    5.1632   -1.9515    0.0004 H   0  0
    0.9582   -3.9646   -0.0003 H   0  0
    5.2495   -6.3989   -0.0003 H   0  0
    3.1739   -7.6190   -0.0006 H   0  0
    0.3437   -3.0115   -0.0005 H   0  0
    0.5903    1.9321    0.0003 H   0  0
   -1.5601    0.8318   -0.0003 H   0  0
   -1.6776   -1.7080   -0.0005 H   0  0
  2  1  2  0
  3  1  1  0
  4  7  1  0
  5  2  1  0
  6  1  1  0
  7  3  2  0
  8  6  2  0
  9  6  1  0
 10  4  2  0
 11  5  2  0
 12  8  1  0
 13  9  2  0
 14  8  1  0
 15 13  1  0
 16 13  1  0
 17  3  1  0
 18  7  1  0
 19 20  1  0
 20 17  2  0
  5  4  1  0
 12 15  2  0
 18 19  2  0
  2 21  1  0
  9 22  1  0
 12 23  1  0
 15 24  1  0
 17 25  1  0
 18 26  1  0
 19 27  1  0
 20 28  1  0
M  END
> <Name>
Molecule

> <Clean Energy>
7.89139

> <From>
www.bindingDB.org

> <BindingDB Reactant_set_id>
50209394

> <Ligand InChI>
InChI=1S/C16H8Cl2O2/c17-9-5-6-14(18)13(7-9)12-8-15(19)16(20)11-4-2-1-3-10(11)12/h1-8H

> <Ligand InChI Key>
NUJLAOQTTZHVFF-UHFFFAOYSA-N

> <BindingDB MonomerID>
50115742

> <BindingDB Ligand Name>
4-(2,5-Dichloro-phenyl)-[1,2]naphthoquinone::CHEMBL58747

> <Target Name>
Tyrosine-protein phosphatase non-receptor type 1

> <Target Source Organism According to Curator or DataSource>
Homo sapiens

> <IC50 (nM)>
5050

> <Curation/DataSource>
ChEMBL

> <Article DOI>
10.1016/s0960-894x(02)00331-1

> <BindingDB Entry DOI>
10.7270/Q2QZ2999

> <PMID>
12113814

> <Authors>
Ahn, JH; Cho, SY; Ha, JD; Chu, SY; Jung, SH; Jung, YS; Baek, JY; Choi, IK; Shin, EY; Kang, SK; Kim, SS; Cheon, HG; Yang, SD; Choi, JK

> <Institution>
Korea Research Institute of Chemical Technology

> <Link to Ligand in BindingDB>
http://www.bindingdb.org/bind/chemsearch/marvin/MolStructure.jsp?monomerid=50115742

> <Link to Ligand-Target Pair in BindingDB>
http://www.bindingdb.org/jsp/dbsearch/PrimarySearch_ki.jsp?energyterm=kJ/mole&tag=pol&polymerid=2622&target=Tyrosine-protein+phosphatase+non-receptor+type+1&column=ki&startPg=0&Increment=50&submit=Sea
rch
http://www.bindingdb.org/jsp/dbsearch/PrimarySearch_ki.jsp?energyterm=kJ/mole&tag=r21&monomerid=50115742&enzyme=Tyrosine-protein+phosphatase+non-receptor+type+1&column=ki&startPg=0&Increment=50&submit
=Search

> <PubChem CID of Ligand>
13545019

> <PubChem SID of Ligand>
104009590

> <ChEMBL ID of Ligand>
CHEMBL58747

> <ZINC ID of Ligand>
ZINC13443871

> <Number of Protein Chains in Target (bigger than 1 implies a multichain complex)>
1

> <BindingDB Target Chain Sequence>
MEMEKEFEQIDKSGSWAAIYQDIRHEASDFPCRVAKLPKNKNRNRYRDVSPFDHSRIKLHQEDNDYINASLIKMEEAQRSYILTQGPLPNTCGHFWEMVWEQKSRGVVMLNRVMEKGSLKCAQYWPQKEEKEMIFEDTNLKLTLISEDIKSYYTVRQLELENLTTQETREILHFHYTTWPDFGVPESPASFLNFLFKVRE
SGSLSPEHGPVVVHCSAGIGRSGTFCLADTCLLLMDKRKDPSSVDIKKVLLEMRKFRMGLIQTADQLRFSYLAVIEGAKFIMGDSSVQDQWKELSHEDLEPPPEHIPPPPRPPKRILEPHNGKCREFFPNHQWVKEETQEDKDCPIKEEKGSPLNAAPYGIESMSQDTEVRSRVVGGSLRGAQAASPAKGEPSLPEKDED
HALSYWKPFLVNMCVATVLTAGAYLCYRFLFNSNT

> <PDB ID(s) of Target Chain>
1BZJ,1G7G,1GFY,1JF7,1KAK,1KAV,1LQF,1NL9,1NNY,1NO6,1NZ7,1OEM,1OEO,1OES,1OET,1OEU,1OEV,1ONY,1ONZ,1PH0,1PXH,1PYN,1Q1M,1Q6J,1Q6M,1Q6N,1Q6P,1Q6S,1Q6T,1QXK,1SUG,1T48,1T49,1T4J,1WAX,1XBO,2AZR,2B07,2BGD,2BGE,
2CM2,2CM3,2CM7,2CM8,2CMA,2CMB,2CMC,2CNE,2CNF,2CNG,2CNH,2CNI,2F6T,2F6V,2F6W,2F6Y,2F6Z,2F70,2F71,2FJN,2H4G,2H4K,2HB1,2HNP,2HNQ,2QBP,2QBQ,2QBR,2QBS,2VEU,2VEV,2VEW,2VEX,2VEY,2ZMM,2ZN7,3A5J,3CWE,3D9C,3EAX,
3EB1,3EU0,3I7Z,3I80,3SME,4BJO,4I8N,4QBW,4Y14,5K9V,5K9W,5KA0,5KA1,5T19,6B90,6NTP,6W30,7KEY,7KLX,7LFO,7MN9,7MNA,8DU7,8G65,8G67,8G68,8G69,8G6A,8SKL

> <UniProt (SwissProt) Recommended Name of Target Chain>
Tyrosine-protein phosphatase non-receptor type 1

> <UniProt (SwissProt) Entry Name of Target Chain>
PTN1_HUMAN

> <UniProt (SwissProt) Primary ID of Target Chain>
P18031

> <UniProt (SwissProt) Secondary ID(s) of Target Chain>
Q5TGD8 Q9BQV9 Q9NQQ4

$$$$
Molecule
  SciTegic10242319433D

 66 70  0  0  0  0            999 V2000
   -1.8504  -11.5010    0.0000 C   0  0
   -2.4906  -13.0500    0.0001 S   0  0
   -1.1206  -13.9694    0.0000 C   0  0
    0.0239  -13.0448   -0.0001 C   0  0
   -0.4073  -11.5980   -0.0001 N   0  0
   -2.5186  -10.4007    0.0001 N   0  0
   -3.9705  -10.3046    0.0003 C   0  0
   -4.6076   -8.9786    0.0002 C   0  0
   -5.9396   -8.8712    0.0004 C   0  0
   -6.7822  -10.0820    0.0006 C   0  0
   -6.2049  -11.2770    0.0007 C   0  0
   -4.7540  -11.3851    0.0005 C   0  0
    0.4190  -10.3329   -0.0002 C   0  0
    1.9790  -10.2797   -0.0002 C   0  0
    2.8459  -11.4560   -0.0001 C   0  0
    4.1709  -11.3421   -0.0001 C   0  0
    4.7881  -10.0285   -0.0002 C   0  0
    4.0217   -8.9403   -0.0003 C   0  0
    2.5555   -9.0748   -0.0003 C   0  0
    6.2451   -9.9135   -0.0002 C   0  0
    7.0299  -11.0635   -0.0001 O   0  0
    6.7801   -8.7996   -0.0003 O   0  0
    1.1791  -13.4637   -0.0003 O   0  0
   -1.0435  -15.3123    0.0000 C   0  0
   -2.2444  -16.2178    0.0001 C   0  0
   -8.1842  -10.0012    0.0008 O   0  0
   -3.4805  -15.7205    0.0000 C   0  0
   -4.6428  -16.5855    0.0001 C   0  0
   -4.4832  -17.9021    0.0002 C   0  0
   -3.1348  -18.4875    0.0003 C   0  0
   -2.0640  -17.6865    0.0002 C   0  0
   -2.9880  -19.8884    0.0004 O   0  0
   -4.2983  -20.4893    0.0003 C   0  0
   -4.2365  -21.9852    0.0004 C   0  0
   -5.3717  -22.6828    0.0001 C   0  0
   -5.3369  -24.1448    0.0002 C   0  0
   -4.1667  -24.7801    0.0005 C   0  0
   -2.9157  -24.0127    0.0007 C   0  0
   -2.9488  -22.6802    0.0007 C   0  0
   -8.6274   -8.6408    0.0007 C   0  0
   -3.9907   -8.0800    0.0000 H   0  0
   -6.4050   -7.8856    0.0003 H   0  0
   -6.8182  -12.1781    0.0009 H   0  0
   -4.2951  -12.3738    0.0006 H   0  0
    0.1102   -9.7849   -0.8904 H   0  0
    0.1102   -9.7847    0.8899 H   0  0
    2.3965  -12.4491    0.0000 H   0  0
    4.7941  -12.2364    0.0000 H   0  0
    4.4790   -7.9508   -0.0004 H   0  0
    1.9329   -8.1801   -0.0004 H   0  0
    7.6362  -11.0741   -0.8574 H   0  0
   -0.0544  -15.7704   -0.0001 H   0  0
   -3.6204  -14.6395   -0.0001 H   0  0
   -5.6446  -16.1558    0.0000 H   0  0
   -5.3568  -18.5539    0.0002 H   0  0
   -1.0614  -18.1141    0.0003 H   0  0
   -4.8347  -20.1606    0.8904 H   0  0
   -4.8346  -20.1607   -0.8898 H   0  0
   -6.3293  -22.1621   -0.0001 H   0  0
   -6.2669  -24.7132    0.0000 H   0  0
   -4.1379  -25.8697    0.0005 H   0  0
   -1.9580  -24.5332    0.0010 H   0  0
   -2.0198  -22.1101    0.0009 H   0  0
   -9.7170   -8.6131    0.0009 H   0  0
   -8.2518   -8.1358   -0.8893 H   0  0
   -8.2515   -8.1356    0.8905 H   0  0
 19 14  2  0
  4  5  1  0
  9 10  1  0
  5  1  1  0
 20 21  1  0
 20 22  2  0
 17 20  1  0
 10 11  2  0
  4 23  2  0
  1  2  1  0
  3 24  2  0
 11 12  1  0
 24 25  1  0
 12  7  2  0
 10 26  1  0
  1  6  2  0
 25 27  2  0
  5 13  1  0
 27 28  1  0
 28 29  2  0
 13 14  1  0
 29 30  1  0
  6  7  1  0
 30 31  2  0
 31 25  1  0
 14 15  1  0
 30 32  1  0
  2  3  1  0
 32 33  1  0
 15 16  2  0
 33 34  1  0
  7  8  1  0
 34 35  2  0
 16 17  1  0
 35 36  1  0
  3  4  1  0
 36 37  2  0
 17 18  2  0
 37 38  1  0
  8  9  2  0
 38 39  2  0
 39 34  1  0
 18 19  1  0
 26 40  1  0
  8 41  1  0
  9 42  1  0
 11 43  1  0
 12 44  1  0
 13 45  1  0
 13 46  1  0
 15 47  1  0
 16 48  1  0
 18 49  1  0
 19 50  1  0
 21 51  1  0
 24 52  1  0
 27 53  1  0
 28 54  1  0
 29 55  1  0
 31 56  1  0
 33 57  1  0
 33 58  1  0
 35 59  1  0
 36 60  1  0
 37 61  1  0
 38 62  1  0
 39 63  1  0
 40 64  1  0
 40 65  1  0
 40 66  1  0
M  END
> <Name>
Molecule

> <Clean Energy>
34.0999

> <From>
www.bindingDB.org

> <BindingDB Reactant_set_id>
50926349

> <Ligand InChI>
InChI=1S/C32H26N2O5S/c1-38-27-16-14-26(15-17-27)33-32-34(20-22-10-12-25(13-11-22)31(36)37)30(35)29(40-32)19-24-8-5-9-28(18-24)39-21-23-6-3-2-4-7-23/h2-19H,20-21H2,1H3,(H,36,37)/b29-19-,33-32-

> <Ligand InChI Key>
UMZVOCOSSAZIRB-PCYGFIDKSA-N

> <BindingDB MonomerID>
50379826

> <BindingDB Ligand Name>
CHEMBL2011705

> <Target Name>
Tyrosine-protein phosphatase non-receptor type 1

> <Target Source Organism According to Curator or DataSource>
Homo sapiens

> <IC50 (nM)>
5100

> <Curation/DataSource>
ChEMBL

> <Article DOI>
10.1016/j.ejmech.2012.02.012

> <BindingDB Entry DOI>
10.7270/Q2DN461B

> <PMID>
22381357

> <Authors>
Ottana, R; Maccari, R; Amuso, S; Wolber, G; Schuster, D; Herdlinger, S; Manao, G; Camici, G; Paoli, P

> <Institution>
University of Messina

> <Link to Ligand in BindingDB>
http://www.bindingdb.org/bind/chemsearch/marvin/MolStructure.jsp?monomerid=50379826

> <Link to Ligand-Target Pair in BindingDB>
http://www.bindingdb.org/jsp/dbsearch/PrimarySearch_ki.jsp?energyterm=kJ/mole&tag=pol&polymerid=2622&target=Tyrosine-protein+phosphatase+non-receptor+type+1&column=ki&startPg=0&Increment=50&submit=Sea
rch
http://www.bindingdb.org/jsp/dbsearch/PrimarySearch_ki.jsp?energyterm=kJ/mole&tag=r21&monomerid=50379826&enzyme=Tyrosine-protein+phosphatase+non-receptor+type+1&column=ki&startPg=0&Increment=50&submit
=Search

> <PubChem CID of Ligand>
57408778

> <PubChem SID of Ligand>
160858909

> <ChEMBL ID of Ligand>
CHEMBL2011705

> <ZINC ID of Ligand>
ZINC84597138

> <Number of Protein Chains in Target (bigger than 1 implies a multichain complex)>
1

> <BindingDB Target Chain Sequence>
MEMEKEFEQIDKSGSWAAIYQDIRHEASDFPCRVAKLPKNKNRNRYRDVSPFDHSRIKLHQEDNDYINASLIKMEEAQRSYILTQGPLPNTCGHFWEMVWEQKSRGVVMLNRVMEKGSLKCAQYWPQKEEKEMIFEDTNLKLTLISEDIKSYYTVRQLELENLTTQETREILHFHYTTWPDFGVPESPASFLNFLFKVRE
SGSLSPEHGPVVVHCSAGIGRSGTFCLADTCLLLMDKRKDPSSVDIKKVLLEMRKFRMGLIQTADQLRFSYLAVIEGAKFIMGDSSVQDQWKELSHEDLEPPPEHIPPPPRPPKRILEPHNGKCREFFPNHQWVKEETQEDKDCPIKEEKGSPLNAAPYGIESMSQDTEVRSRVVGGSLRGAQAASPAKGEPSLPEKDED
HALSYWKPFLVNMCVATVLTAGAYLCYRFLFNSNT

> <PDB ID(s) of Target Chain>
1BZJ,1G7G,1GFY,1JF7,1KAK,1KAV,1LQF,1NL9,1NNY,1NO6,1NZ7,1OEM,1OEO,1OES,1OET,1OEU,1OEV,1ONY,1ONZ,1PH0,1PXH,1PYN,1Q1M,1Q6J,1Q6M,1Q6N,1Q6P,1Q6S,1Q6T,1QXK,1SUG,1T48,1T49,1T4J,1WAX,1XBO,2AZR,2B07,2BGD,2BGE,
2CM2,2CM3,2CM7,2CM8,2CMA,2CMB,2CMC,2CNE,2CNF,2CNG,2CNH,2CNI,2F6T,2F6V,2F6W,2F6Y,2F6Z,2F70,2F71,2FJN,2H4G,2H4K,2HB1,2HNP,2HNQ,2QBP,2QBQ,2QBR,2QBS,2VEU,2VEV,2VEW,2VEX,2VEY,2ZMM,2ZN7,3A5J,3CWE,3D9C,3EAX,
3EB1,3EU0,3I7Z,3I80,3SME,4BJO,4I8N,4QBW,4Y14,5K9V,5K9W,5KA0,5KA1,5T19,6B90,6NTP,6W30,7KEY,7KLX,7LFO,7MN9,7MNA,8DU7,8G65,8G67,8G68,8G69,8G6A,8SKL

> <UniProt (SwissProt) Recommended Name of Target Chain>
Tyrosine-protein phosphatase non-receptor type 1

> <UniProt (SwissProt) Entry Name of Target Chain>
PTN1_HUMAN

> <UniProt (SwissProt) Primary ID of Target Chain>
P18031

> <UniProt (SwissProt) Secondary ID(s) of Target Chain>
Q5TGD8 Q9BQV9 Q9NQQ4

$$$$
Molecule
  SciTegic10242319433D

 68 72  0  0  0  0            999 V2000
    1.5500   -0.1619   -0.0001 C   0  0
    1.4075    1.1618   -0.0002 C   0  0
    0.0745    1.7613   -0.0001 C   0  0
   -0.9984    0.9713    0.0001 C   0  0
   -0.8354   -0.4856    0.0002 C   0  0
    0.3795   -1.0409    0.0001 C   0  0
    0.4399   -2.5437    0.0003 C   0  0
    1.4665   -3.4162    0.0002 C   0  0
    2.9207   -3.1321    0.0000 C   0  0
    3.6199   -4.3297    0.0001 N   0  0
    2.6573   -5.3837    0.0004 C   0  0
    1.3515   -4.8667    0.0004 N   0  0
    3.4669   -2.0302   -0.0002 O   0  0
    2.8822   -6.5940    0.0005 O   0  0
    5.1206   -4.3395    0.0000 C   0  0
    6.0022   -5.6177    0.0001 C   0  0
    0.1923   -5.8472    0.0007 C   0  0
   -1.3439   -5.5715    0.0001 C   0  0
   -2.1377   -6.6442   -0.0001 C   0  0
   -3.5969   -6.5055   -0.0006 C   0  0
   -4.1509   -5.2969   -0.0009 C   0  0
   -3.2982   -4.1176   -0.0007 C   0  0
   -1.9741   -4.2536   -0.0002 C   0  0
   -0.0472    3.1623   -0.0002 O   0  0
   -1.4173    3.5929    0.0000 C   0  0
    7.3256   -5.4423    0.0004 C   0  0
    8.2369   -6.5916    0.0005 C   0  0
    7.7465   -7.8271    0.0003 C   0  0
    6.3057   -8.0333    0.0000 C   0  0
    5.4838   -6.9868   -0.0002 C   0  0
    8.6447   -8.9768    0.0004 C   0  0
    9.8693   -8.8039    0.0008 O   0  0
    8.1178  -10.2664    0.0002 O   0  0
    9.1791  -11.2248    0.0004 C   0  0
   -1.4427    5.0941    0.0002 C   0  0
   -2.6033    5.7483    0.0001 C   0  0
   -2.6159    7.2157    0.0004 C   0  0
   -1.4682    7.8927    0.0007 C   0  0
   -0.1929    7.1716    0.0008 C   0  0
   -0.1814    5.8398    0.0006 C   0  0
    2.5498   -0.5961   -0.0002 H   0  0
    2.2897    1.8020   -0.0004 H   0  0
   -1.9970    1.4081    0.0002 H   0  0
   -1.7183   -1.1249    0.0004 H   0  0
   -0.5401   -3.0210    0.0005 H   0  0
    5.4148   -3.7836   -0.8902 H   0  0
    5.4149   -3.7834    0.8901 H   0  0
    0.3557   -6.4553   -0.8891 H   0  0
    0.3552   -6.4543    0.8912 H   0  0
   -1.6937   -7.6397    0.0002 H   0  0
   -4.2284   -7.3940   -0.0007 H   0  0
   -5.2356   -5.1901   -0.0012 H   0  0
   -3.7438   -3.1229   -0.0009 H   0  0
   -1.3465   -3.3625   -0.0001 H   0  0
   -1.9213    3.2165   -0.8902 H   0  0
   -1.9213    3.2163    0.8901 H   0  0
    7.7343   -4.4318    0.0006 H   0  0
    9.3152   -6.4327    0.0008 H   0  0
    5.9000   -9.0450   -0.0002 H   0  0
    4.4063   -7.1517   -0.0004 H   0  0
    8.7605  -12.2312    0.0003 H   0  0
    9.7932  -11.0875    0.8905 H   0  0
    9.7936  -11.0874   -0.8893 H   0  0
   -3.5421    5.1944   -0.0002 H   0  0
   -3.5647    7.7523    0.0003 H   0  0
   -1.4781    8.9826    0.0009 H   0  0
    0.7462    7.7249    0.0011 H   0  0
    0.7678    5.3039    0.0007 H   0  0
  1  2  2  0
  2  3  1  0
  3  4  2  0
  4  5  1  0
  5  6  2  0
  6  1  1  0
  6  7  1  0
  7  8  2  0
  8  9  1  0
  9 10  1  0
 10 11  1  0
 11 12  1  0
 12  8  1  0
  9 13  2  0
 11 14  2  0
 10 15  1  0
 15 16  1  0
 12 17  1  0
 17 18  1  0
 18 19  2  0
 19 20  1  0
 20 21  2  0
 21 22  1  0
 22 23  2  0
 23 18  1  0
  3 24  1  0
 24 25  1  0
 16 26  2  0
 26 27  1  0
 27 28  2  0
 28 29  1  0
 29 30  2  0
 30 16  1  0
 28 31  1  0
 31 32  2  0
 31 33  1  0
 33 34  1  0
 25 35  1  0
 35 36  2  0
 36 37  1  0
 37 38  2  0
 38 39  1  0
 39 40  2  0
 40 35  1  0
  1 41  1  0
  2 42  1  0
  4 43  1  0
  5 44  1  0
  7 45  1  0
 15 46  1  0
 15 47  1  0
 17 48  1  0
 17 49  1  0
 19 50  1  0
 20 51  1  0
 21 52  1  0
 22 53  1  0
 23 54  1  0
 25 55  1  0
 25 56  1  0
 26 57  1  0
 27 58  1  0
 29 59  1  0
 30 60  1  0
 34 61  1  0
 34 62  1  0
 34 63  1  0
 36 64  1  0
 37 65  1  0
 38 66  1  0
 39 67  1  0
 40 68  1  0
M  END
> <Name>
Molecule

> <Clean Energy>
48.9375

> <From>
www.bindingDB.org

> <BindingDB Reactant_set_id>
50428142

> <Ligand InChI>
InChI=1S/C33H28N2O5/c1-39-32(37)28-16-12-26(13-17-28)22-35-31(36)30(34(33(35)38)21-25-8-4-2-5-9-25)20-24-14-18-29(19-15-24)40-23-27-10-6-3-7-11-27/h2-20H,21-23H2,1H3/b30-20+

> <Ligand InChI Key>
DRIJJCVJOXETFS-TWKHWXDSSA-N

> <BindingDB MonomerID>
50127131

> <BindingDB Ligand Name>
CHEMBL3628539

> <Target Name>
Tyrosine-protein phosphatase non-receptor type 1

> <Target Source Organism According to Curator or DataSource>
Homo sapiens

> <IC50 (nM)>
5100

> <Curation/DataSource>
ChEMBL

> <Article DOI>
10.1016/j.ejmech.2015.08.037

> <BindingDB Entry DOI>
10.7270/Q2PK0HZF

> <PMID>
26342135

> <Authors>
Wang, MY; Jin, YY; Wei, HY; Zhang, LS; Sun, SX; Chen, XB; Dong, WL; Xu, WR; Cheng, XC; Wang, RL

> <Institution>
Tianjin Medical University

> <Link to Ligand in BindingDB>
http://www.bindingdb.org/bind/chemsearch/marvin/MolStructure.jsp?monomerid=50127131

> <Link to Ligand-Target Pair in BindingDB>
http://www.bindingdb.org/jsp/dbsearch/PrimarySearch_ki.jsp?energyterm=kJ/mole&tag=pol&polymerid=2622&target=Tyrosine-protein+phosphatase+non-receptor+type+1&column=ki&startPg=0&Increment=50&submit=Sea
rch
http://www.bindingdb.org/jsp/dbsearch/PrimarySearch_ki.jsp?energyterm=kJ/mole&tag=r21&monomerid=50127131&enzyme=Tyrosine-protein+phosphatase+non-receptor+type+1&column=ki&startPg=0&Increment=50&submit
=Search

> <PubChem CID of Ligand>
122193539

> <PubChem SID of Ligand>
321902527

> <ChEMBL ID of Ligand>
CHEMBL3628539

> <Number of Protein Chains in Target (bigger than 1 implies a multichain complex)>
1

> <BindingDB Target Chain Sequence>
MEMEKEFEQIDKSGSWAAIYQDIRHEASDFPCRVAKLPKNKNRNRYRDVSPFDHSRIKLHQEDNDYINASLIKMEEAQRSYILTQGPLPNTCGHFWEMVWEQKSRGVVMLNRVMEKGSLKCAQYWPQKEEKEMIFEDTNLKLTLISEDIKSYYTVRQLELENLTTQETREILHFHYTTWPDFGVPESPASFLNFLFKVRE
SGSLSPEHGPVVVHCSAGIGRSGTFCLADTCLLLMDKRKDPSSVDIKKVLLEMRKFRMGLIQTADQLRFSYLAVIEGAKFIMGDSSVQDQWKELSHEDLEPPPEHIPPPPRPPKRILEPHNGKCREFFPNHQWVKEETQEDKDCPIKEEKGSPLNAAPYGIESMSQDTEVRSRVVGGSLRGAQAASPAKGEPSLPEKDED
HALSYWKPFLVNMCVATVLTAGAYLCYRFLFNSNT

> <PDB ID(s) of Target Chain>
1BZJ,1G7G,1GFY,1JF7,1KAK,1KAV,1LQF,1NL9,1NNY,1NO6,1NZ7,1OEM,1OEO,1OES,1OET,1OEU,1OEV,1ONY,1ONZ,1PH0,1PXH,1PYN,1Q1M,1Q6J,1Q6M,1Q6N,1Q6P,1Q6S,1Q6T,1QXK,1SUG,1T48,1T49,1T4J,1WAX,1XBO,2AZR,2B07,2BGD,2BGE,
2CM2,2CM3,2CM7,2CM8,2CMA,2CMB,2CMC,2CNE,2CNF,2CNG,2CNH,2CNI,2F6T,2F6V,2F6W,2F6Y,2F6Z,2F70,2F71,2FJN,2H4G,2H4K,2HB1,2HNP,2HNQ,2QBP,2QBQ,2QBR,2QBS,2VEU,2VEV,2VEW,2VEX,2VEY,2ZMM,2ZN7,3A5J,3CWE,3D9C,3EAX,
3EB1,3EU0,3I7Z,3I80,3SME,4BJO,4I8N,4QBW,4Y14,5K9V,5K9W,5KA0,5KA1,5T19,6B90,6NTP,6W30,7KEY,7KLX,7LFO,7MN9,7MNA,8DU7,8G65,8G67,8G68,8G69,8G6A,8SKL

> <UniProt (SwissProt) Recommended Name of Target Chain>
Tyrosine-protein phosphatase non-receptor type 1

> <UniProt (SwissProt) Entry Name of Target Chain>
PTN1_HUMAN

> <UniProt (SwissProt) Primary ID of Target Chain>
P18031

> <UniProt (SwissProt) Secondary ID(s) of Target Chain>
Q5TGD8 Q9BQV9 Q9NQQ4

$$$$
Molecule
  SciTegic10242319433D

 45 48  0  0  0  0            999 V2000
   -0.5545  -15.4915   -0.0004 C   0  0
    1.0387  -15.4632   -0.0008 C   0  0
   -0.3269  -12.9767    0.0005 C   0  0
   -1.1957  -14.3002    0.0000 C   0  0
    1.0443  -13.0455    0.0004 C   0  0
    1.7358  -14.2879   -0.0006 C   0  0
    3.3576  -13.9805   -0.0022 C   0  0
    3.4716  -12.5810    0.0000 C   0  0
    2.0579  -11.9775    0.0011 O   0  0
    4.8920  -11.6556    0.0000 C   0  0
    6.1016  -12.2407    0.0004 C   0  0
    7.3895  -11.4389    0.0003 C   0  0
    7.3752  -10.1057   -0.0002 C   0  0
    6.0784   -9.4123   -0.0006 C   0  0
    4.9161  -10.1086   -0.0004 C   0  0
    4.5774  -15.1832   -0.0060 C   0  0
    5.4874  -16.0489   -0.0105 C   0  0
   -2.6407  -14.2556    0.0002 O   0  0
   -1.3620  -16.8709   -0.0007 C   0  0
   -2.7856  -16.9281   -0.0012 O   0  0
   -0.7554  -17.9534   -0.0003 O   0  0
    6.7183  -17.2707   -0.0138 C   0  0
    6.4071  -18.5875    0.0210 C   0  0
    7.4815  -19.7622    0.0732 C   0  0
    8.8283  -19.5759    0.1026 C   0  0
    9.1924  -18.0516    0.0216 C   0  0
    8.2578  -17.0273   -0.0340 C   0  0
    9.9964  -20.8430    0.3049 O   0  0
    9.4855  -22.3254    0.1199 C   0  0
   10.2355  -22.2669   -1.0708 F   0  0
    8.2630  -22.2986    0.2811 F   0  0
    9.7697  -23.7369    0.2175 F   0  0
    1.5866  -16.4055   -0.0013 H   0  0
   -0.8204  -12.0049    0.0009 H   0  0
    6.1596  -13.3291    0.0007 H   0  0
    8.3453  -11.9630    0.0007 H   0  0
    8.3072   -9.5404   -0.0004 H   0  0
    6.0519   -8.3226   -0.0010 H   0  0
    3.9720   -9.5639   -0.0005 H   0  0
   -2.9757  -13.7505    0.8577 H   0  0
   -3.1156  -17.4367   -0.8585 H   0  0
    5.3523  -18.8620    0.0127 H   0  0
    7.1113  -20.7873    0.0864 H   0  0
   10.2479  -17.7798    0.0081 H   0  0
    8.6186  -16.0006   -0.0948 H   0  0
  1  2  1  0
  2  6  2  0
  5  3  2  0
  3  4  1  0
  4  1  2  0
  5  6  1  0
  6  7  1  0
  7  8  2  0
  8  9  1  0
  9  5  1  0
 10 11  2  0
 11 12  1  0
 12 13  2  0
 13 14  1  0
 14 15  2  0
 15 10  1  0
  8 10  1  0
  7 16  1  0
 16 17  3  0
  4 18  1  0
 19 20  1  0
 19 21  2  0
  1 19  1  0
 17 22  1  0
 22 23  2  0
 23 24  1  0
 24 25  2  0
 25 26  1  0
 26 27  2  0
 27 22  1  0
 25 28  1  0
 28 29  1  0
 29 30  1  0
 29 31  1  0
 29 32  1  0
  2 33  1  0
  3 34  1  0
 11 35  1  0
 12 36  1  0
 13 37  1  0
 14 38  1  0
 15 39  1  0
 18 40  1  0
 20 41  1  0
 23 42  1  0
 24 43  1  0
 26 44  1  0
 27 45  1  0
M  END
> <Name>
Molecule

> <Clean Energy>
163.166

> <From>
www.bindingDB.org

> <BindingDB Reactant_set_id>
51043081

> <Ligand InChI>
InChI=1S/C24H13F3O5/c25-24(26,27)32-16-9-6-14(7-10-16)8-11-17-18-12-19(23(29)30)20(28)13-21(18)31-22(17)15-4-2-1-3-5-15/h1-7,9-10,12-13,28H,(H,29,30)

> <Ligand InChI Key>
CMOKPKRDZUEWNH-UHFFFAOYSA-N

> <BindingDB MonomerID>
50425806

> <BindingDB Ligand Name>
CHEMBL2316907

> <Target Name>
Tyrosine-protein phosphatase non-receptor type 1

> <Target Source Organism According to Curator or DataSource>
Homo sapiens

> <IC50 (nM)>
5100

> <Curation/DataSource>
ChEMBL

> <Article DOI>
10.1021/jm301781p

> <BindingDB Entry DOI>
10.7270/Q2KK9D4X

> <PMID>
23305444

> <Authors>
He, Y; Xu, J; Yu, ZH; Gunawan, AM; Wu, L; Wang, L; Zhang, ZY

> <Institution>
Indiana University School of Medicine

> <Link to Ligand in BindingDB>
http://www.bindingdb.org/bind/chemsearch/marvin/MolStructure.jsp?monomerid=50425806

> <Link to Ligand-Target Pair in BindingDB>
http://www.bindingdb.org/jsp/dbsearch/PrimarySearch_ki.jsp?energyterm=kJ/mole&tag=pol&polymerid=2622&target=Tyrosine-protein+phosphatase+non-receptor+type+1&column=ki&startPg=0&Increment=50&submit=Sea
rch
http://www.bindingdb.org/jsp/dbsearch/PrimarySearch_ki.jsp?energyterm=kJ/mole&tag=r21&monomerid=50425806&enzyme=Tyrosine-protein+phosphatase+non-receptor+type+1&column=ki&startPg=0&Increment=50&submit
=Search

> <PubChem CID of Ligand>
70982811

> <PubChem SID of Ligand>
164154681

> <ChEMBL ID of Ligand>
CHEMBL2316907

> <ZINC ID of Ligand>
ZINC95597206

> <Number of Protein Chains in Target (bigger than 1 implies a multichain complex)>
1

> <BindingDB Target Chain Sequence>
MEMEKEFEQIDKSGSWAAIYQDIRHEASDFPCRVAKLPKNKNRNRYRDVSPFDHSRIKLHQEDNDYINASLIKMEEAQRSYILTQGPLPNTCGHFWEMVWEQKSRGVVMLNRVMEKGSLKCAQYWPQKEEKEMIFEDTNLKLTLISEDIKSYYTVRQLELENLTTQETREILHFHYTTWPDFGVPESPASFLNFLFKVRE
SGSLSPEHGPVVVHCSAGIGRSGTFCLADTCLLLMDKRKDPSSVDIKKVLLEMRKFRMGLIQTADQLRFSYLAVIEGAKFIMGDSSVQDQWKELSHEDLEPPPEHIPPPPRPPKRILEPHNGKCREFFPNHQWVKEETQEDKDCPIKEEKGSPLNAAPYGIESMSQDTEVRSRVVGGSLRGAQAASPAKGEPSLPEKDED
HALSYWKPFLVNMCVATVLTAGAYLCYRFLFNSNT

> <PDB ID(s) of Target Chain>
1BZJ,1G7G,1GFY,1JF7,1KAK,1KAV,1LQF,1NL9,1NNY,1NO6,1NZ7,1OEM,1OEO,1OES,1OET,1OEU,1OEV,1ONY,1ONZ,1PH0,1PXH,1PYN,1Q1M,1Q6J,1Q6M,1Q6N,1Q6P,1Q6S,1Q6T,1QXK,1SUG,1T48,1T49,1T4J,1WAX,1XBO,2AZR,2B07,2BGD,2BGE,
2CM2,2CM3,2CM7,2CM8,2CMA,2CMB,2CMC,2CNE,2CNF,2CNG,2CNH,2CNI,2F6T,2F6V,2F6W,2F6Y,2F6Z,2F70,2F71,2FJN,2H4G,2H4K,2HB1,2HNP,2HNQ,2QBP,2QBQ,2QBR,2QBS,2VEU,2VEV,2VEW,2VEX,2VEY,2ZMM,2ZN7,3A5J,3CWE,3D9C,3EAX,
3EB1,3EU0,3I7Z,3I80,3SME,4BJO,4I8N,4QBW,4Y14,5K9V,5K9W,5KA0,5KA1,5T19,6B90,6NTP,6W30,7KEY,7KLX,7LFO,7MN9,7MNA,8DU7,8G65,8G67,8G68,8G69,8G6A,8SKL

> <UniProt (SwissProt) Recommended Name of Target Chain>
Tyrosine-protein phosphatase non-receptor type 1

> <UniProt (SwissProt) Entry Name of Target Chain>
PTN1_HUMAN

> <UniProt (SwissProt) Primary ID of Target Chain>
P18031

> <UniProt (SwissProt) Secondary ID(s) of Target Chain>
Q5TGD8 Q9BQV9 Q9NQQ4

$$$$
Molecule
  SciTegic10242319433D

 59 63  0  0  0  0            999 V2000
    5.1670   -3.5400    0.0001 S   0  0
    6.3943   -4.5980    0.0002 C   0  0
    7.6227   -3.8149    0.0002 C   0  0
    7.3497   -2.3075    0.0002 N   0  0
    5.8977   -2.0751    0.0001 C   0  0
    8.7182   -4.3709    0.0004 O   0  0
    6.2826   -5.9394    0.0003 C   0  0
    4.9370   -6.6314    0.0003 C   0  0
    5.2589   -0.9512    0.0001 N   0  0
    3.7647   -0.8473    0.0001 C   0  0
    8.3296   -1.1429    0.0003 C   0  0
    9.8944   -1.3132    0.0001 C   0  0
   10.5353   -2.5462   -0.0006 C   0  0
   11.9161   -2.6572   -0.0008 C   0  0
   12.6961   -1.5088   -0.0003 C   0  0
   12.0805   -0.2648    0.0003 C   0  0
   10.6881   -0.1694    0.0005 C   0  0
   14.1526   -1.6359   -0.0006 C   0  0
   14.7370   -2.9011   -0.0011 O   0  0
   14.8644   -0.6260   -0.0002 O   0  0
    3.1506    0.4026    0.0003 C   0  0
    1.7590    0.5098    0.0003 C   0  0
    0.9575   -0.6282    0.0001 C   0  0
    1.5528   -1.8785   -0.0002 C   0  0
    2.9365   -1.9696   -0.0002 C   0  0
    3.7656   -5.8899    0.0001 C   0  0
    2.5248   -6.4877    0.0002 C   0  0
    2.3991   -7.8686    0.0004 C   0  0
    3.5710   -8.6245    0.0005 C   0  0
    4.8302   -8.0177    0.0004 C   0  0
   -0.3821   -0.5287    0.0001 F   0  0
    1.1101   -8.5598    0.0005 O   0  0
   -0.1998   -7.8629    0.0004 C   0  0
   -0.3855   -6.4778    0.0001 C   0  0
   -1.6524   -5.9093    0.0000 C   0  0
   -2.7734   -6.7274    0.0002 C   0  0
   -2.6108   -8.1067    0.0005 C   0  0
   -1.3356   -8.6648    0.0006 C   0  0
    7.1887   -6.5453    0.0003 H   0  0
    8.0953   -0.5588   -0.8896 H   0  0
    8.0956   -0.5592    0.8906 H   0  0
    9.9326   -3.4545   -0.0010 H   0  0
   12.3873   -3.6401   -0.0013 H   0  0
   12.6867    0.6410    0.0006 H   0  0
   10.2161    0.8130    0.0010 H   0  0
   14.4348   -3.4272    0.8559 H   0  0
    3.7620    1.3050    0.0005 H   0  0
    1.2946    1.4959    0.0005 H   0  0
    0.9408   -2.7805   -0.0004 H   0  0
    3.3956   -2.9582   -0.0004 H   0  0
    3.8284   -4.8017    0.0000 H   0  0
    1.6290   -5.8666    0.0001 H   0  0
    3.5035   -9.7124    0.0006 H   0  0
    5.7303   -8.6325    0.0005 H   0  0
    0.4880   -5.8258   -0.0001 H   0  0
   -1.7659   -4.8252   -0.0002 H   0  0
   -3.7724   -6.2915    0.0001 H   0  0
   -3.4865   -8.7557    0.0006 H   0  0
   -1.2256   -9.7493    0.0008 H   0  0
  1  2  1  0
  2  3  1  0
  3  4  1  0
  4  5  1  0
  5  1  1  0
  3  6  2  0
  2  7  2  0
  7  8  1  0
  5  9  2  0
  9 10  1  0
  4 11  1  0
 11 12  1  0
 12 13  4  0
 13 14  4  0
 14 15  4  0
 15 16  4  0
 16 17  4  0
 17 12  4  0
 15 18  1  0
 18 19  1  0
 18 20  2  0
 10 21  4  0
 21 22  4  0
 22 23  4  0
 23 24  4  0
 24 25  4  0
 25 10  4  0
  8 26  4  0
 26 27  4  0
 27 28  4  0
 28 29  4  0
 29 30  4  0
 30  8  4  0
 23 31  1  0
 28 32  1  0
 32 33  1  0
 33 34  4  0
 34 35  4  0
 35 36  4  0
 36 37  4  0
 37 38  4  0
 38 33  4  0
  7 39  1  0
 11 40  1  0
 11 41  1  0
 13 42  1  0
 14 43  1  0
 16 44  1  0
 17 45  1  0
 19 46  1  0
 21 47  1  0
 22 48  1  0
 24 49  1  0
 25 50  1  0
 26 51  1  0
 27 52  1  0
 29 53  1  0
 30 54  1  0
 34 55  1  0
 35 56  1  0
 36 57  1  0
 37 58  1  0
 38 59  1  0
M  END
> <Name>
Molecule

> <Clean Energy>
49.84

> <From>
www.bindingDB.org

> <BindingDB Reactant_set_id>
50683877

> <Ligand InChI>
InChI=1S/C30H21FN2O4S/c31-23-12-14-24(15-13-23)32-30-33(19-21-6-10-22(11-7-21)29(35)36)28(34)27(38-30)18-20-8-16-26(17-9-20)37-25-4-2-1-3-5-25/h1-18H,19H2,(H,35,36)/b27-18-,32-30-

> <Ligand InChI Key>
BYPLENQTDSUBOC-TYNNKJBBSA-N

> <BindingDB MonomerID>
50232094

> <BindingDB Ligand Name>
CHEMBL4062661

> <Target Name>
Tyrosine-protein phosphatase non-receptor type 1

> <Target Source Organism According to Curator or DataSource>
Homo sapiens

> <IC50 (nM)>
5100

> <Curation/DataSource>
ChEMBL

> <Article DOI>
10.1016/j.ejmech.2016.10.063

> <BindingDB Entry DOI>
10.7270/Q21J9D18

> <PMID>
27842892

> <Authors>
Ottanà, R; Paoli, P; Naß, A; Lori, G; Cardile, V; Adornato, I; Rotondo, A; Graziano, ACE; Wolber, G; Maccari, R

> <Institution>
University of Messina

> <Link to Ligand in BindingDB>
http://www.bindingdb.org/bind/chemsearch/marvin/MolStructure.jsp?monomerid=50232094

> <Link to Ligand-Target Pair in BindingDB>
http://www.bindingdb.org/jsp/dbsearch/PrimarySearch_ki.jsp?energyterm=kJ/mole&tag=pol&polymerid=2622&target=Tyrosine-protein+phosphatase+non-receptor+type+1&column=ki&startPg=0&Increment=50&submit=Sea
rch
http://www.bindingdb.org/jsp/dbsearch/PrimarySearch_ki.jsp?energyterm=kJ/mole&tag=r21&monomerid=50232094&enzyme=Tyrosine-protein+phosphatase+non-receptor+type+1&column=ki&startPg=0&Increment=50&submit
=Search

> <PubChem CID of Ligand>
137634825

> <PubChem SID of Ligand>
384226504

> <ChEMBL ID of Ligand>
CHEMBL4062661

> <Number of Protein Chains in Target (bigger than 1 implies a multichain complex)>
1

> <BindingDB Target Chain Sequence>
MEMEKEFEQIDKSGSWAAIYQDIRHEASDFPCRVAKLPKNKNRNRYRDVSPFDHSRIKLHQEDNDYINASLIKMEEAQRSYILTQGPLPNTCGHFWEMVWEQKSRGVVMLNRVMEKGSLKCAQYWPQKEEKEMIFEDTNLKLTLISEDIKSYYTVRQLELENLTTQETREILHFHYTTWPDFGVPESPASFLNFLFKVRE
SGSLSPEHGPVVVHCSAGIGRSGTFCLADTCLLLMDKRKDPSSVDIKKVLLEMRKFRMGLIQTADQLRFSYLAVIEGAKFIMGDSSVQDQWKELSHEDLEPPPEHIPPPPRPPKRILEPHNGKCREFFPNHQWVKEETQEDKDCPIKEEKGSPLNAAPYGIESMSQDTEVRSRVVGGSLRGAQAASPAKGEPSLPEKDED
HALSYWKPFLVNMCVATVLTAGAYLCYRFLFNSNT

> <PDB ID(s) of Target Chain>
1BZJ,1G7G,1GFY,1JF7,1KAK,1KAV,1LQF,1NL9,1NNY,1NO6,1NZ7,1OEM,1OEO,1OES,1OET,1OEU,1OEV,1ONY,1ONZ,1PH0,1PXH,1PYN,1Q1M,1Q6J,1Q6M,1Q6N,1Q6P,1Q6S,1Q6T,1QXK,1SUG,1T48,1T49,1T4J,1WAX,1XBO,2AZR,2B07,2BGD,2BGE,
2CM2,2CM3,2CM7,2CM8,2CMA,2CMB,2CMC,2CNE,2CNF,2CNG,2CNH,2CNI,2F6T,2F6V,2F6W,2F6Y,2F6Z,2F70,2F71,2FJN,2H4G,2H4K,2HB1,2HNP,2HNQ,2QBP,2QBQ,2QBR,2QBS,2VEU,2VEV,2VEW,2VEX,2VEY,2ZMM,2ZN7,3A5J,3CWE,3D9C,3EAX,
3EB1,3EU0,3I7Z,3I80,3SME,4BJO,4I8N,4QBW,4Y14,5K9V,5K9W,5KA0,5KA1,5T19,6B90,6NTP,6W30,7KEY,7KLX,7LFO,7MN9,7MNA,8DU7,8G65,8G67,8G68,8G69,8G6A,8SKL

> <UniProt (SwissProt) Recommended Name of Target Chain>
Tyrosine-protein phosphatase non-receptor type 1

> <UniProt (SwissProt) Entry Name of Target Chain>
PTN1_HUMAN

> <UniProt (SwissProt) Primary ID of Target Chain>
P18031

> <UniProt (SwissProt) Secondary ID(s) of Target Chain>
Q5TGD8 Q9BQV9 Q9NQQ4

$$$$
Molecule
  SciTegic10242319433D

 71 74  0  0  0  0            999 V2000
    1.7194   -6.6610   -0.0174 N   0  0
    2.9482   -5.8998   -0.0093 C   0  0
    2.9836   -4.2624    0.0015 S   0  0
    4.6219   -4.0098   -0.0086 C   0  0
    5.2173   -5.2513    0.0045 C   0  0
    4.1601   -6.3517   -0.0134 N   0  0
    6.7272   -5.6613   -0.0113 C   0  0
    7.8537   -4.7128   -0.0007 C   0  0
    9.1237   -5.1114   -0.0030 C   0  0
    9.4349   -6.5257   -0.0073 C   0  0
    8.4414   -7.4118   -0.0126 C   0  0
    7.0300   -6.9618   -0.0110 C   0  0
   -2.2236   -6.0550   -0.0755 C   0  0
   -3.4536   -7.0427   -0.1797 C   0  0
   -0.8500   -6.8768   -0.1370 C   0  0
  -13.8707   -7.1575    0.2134 O   0  0
  -12.5730   -6.0989   -0.1460 S   0  0
  -11.0017   -6.9656   -0.0894 C   0  0
   -9.8185   -6.3286   -0.1390 C   0  0
   -8.5671   -7.1438   -0.0769 C   0  0
   -8.7018   -8.4546   -0.0112 C   0  0
   -7.5588   -9.3118    0.0813 C   0  0
   -6.2979   -8.8797    0.0973 C   0  0
   -6.0609   -7.2782   -0.0201 C   0  0
   -7.1904   -6.5345   -0.0897 C   0  0
  -12.7815   -5.5273   -1.5349 O   0  0
  -12.5620   -4.9598    0.8547 O   0  0
  -15.1108   -6.4287    0.1441 C   0  0
   -5.4121  -10.0407    0.2867 O   0  0
  -16.2994   -7.3641    0.4528 C   0  0
   -4.0238   -9.9992    0.4931 C   0  0
   -4.7830   -6.4414   -0.1021 O   0  0
    0.4160   -5.9358    0.0185 C   0  0
    5.1129   -2.5662    0.0110 C   0  0
    6.3836   -2.1778    0.0025 C   0  0
    6.7516   -0.7636    0.0065 C   0  0
    5.8039    0.1673    0.0097 C   0  0
    4.4022   -0.2344    0.0132 C   0  0
    4.0763   -1.5259    0.0093 C   0  0
    1.7443   -7.7303   -0.0487 H   0  0
    7.6395   -3.6441    0.0094 H   0  0
    9.9274   -4.3751   -0.0015 H   0  0
   10.4719   -6.8613   -0.0063 H   0  0
    8.6684   -8.4778   -0.0181 H   0  0
    6.2292   -7.7011   -0.0095 H   0  0
   -2.2580   -5.3481   -0.9045 H   0  0
   -2.2766   -5.5120    0.8682 H   0  0
   -3.3807   -7.5619   -1.1353 H   0  0
   -3.3687   -7.7636    0.6334 H   0  0
   -0.8433   -7.6106    0.6690 H   0  0
   -0.7904   -7.3899   -1.0968 H   0  0
  -11.0070   -8.0528   -0.0115 H   0  0
   -9.7730   -5.2427   -0.2227 H   0  0
   -9.6999   -8.8922   -0.0276 H   0  0
   -7.7307  -10.3864    0.1426 H   0  0
   -7.0991   -5.4505   -0.1578 H   0  0
  -15.0926   -5.6180    0.8725 H   0  0
  -15.2293   -6.0153   -0.8575 H   0  0
  -17.2304   -6.8000    0.3968 H   0  0
  -16.1858   -7.7782    1.4546 H   0  0
  -16.3225   -8.1754   -0.2748 H   0  0
   -3.6413  -11.0143    0.5999 H   0  0
   -3.8074   -9.4329    1.3990 H   0  0
   -3.5434   -9.5183   -0.3590 H   0  0
    0.4053   -5.2100   -0.7946 H   0  0
    0.3402   -5.4144    0.9727 H   0  0
    7.1703   -2.9322   -0.0077 H   0  0
    7.8021   -0.4730    0.0069 H   0  0
    6.0722    1.2238    0.0098 H   0  0
    3.6192    0.5240    0.0190 H   0  0
    3.0252   -1.8148    0.0048 H   0  0
 19 20  1  0
  4  5  2  0
 20 21  2  0
 10 11  2  0
 21 22  1  0
  5  6  1  0
 22 23  2  0
 11 12  1  0
 23 24  1  0
 12  7  2  0
 24 25  2  0
 25 20  1  0
  5  7  1  0
 17 26  2  0
  6  2  2  0
 17 27  2  0
  1  2  1  0
 16 28  1  0
 14 13  1  0
 23 29  1  0
  2  3  1  0
 28 30  1  0
 13 15  1  0
 29 31  1  0
  7  8  1  0
 24 32  1  0
 32 14  1  0
 15 33  1  0
 33  1  1  0
 16 17  1  0
  8  9  2  0
 34 35  2  0
 17 18  1  0
 35 36  1  0
  3  4  1  0
 36 37  2  0
 18 19  2  0
 37 38  1  0
  9 10  1  0
 38 39  2  0
 39 34  1  0
  4 34  1  0
  1 40  1  0
  8 41  1  0
  9 42  1  0
 10 43  1  0
 11 44  1  0
 12 45  1  0
 13 46  1  0
 13 47  1  0
 14 48  1  0
 14 49  1  0
 15 50  1  0
 15 51  1  0
 18 52  1  0
 19 53  1  0
 21 54  1  0
 22 55  1  0
 25 56  1  0
 28 57  1  0
 28 58  1  0
 30 59  1  0
 30 60  1  0
 30 61  1  0
 31 62  1  0
 31 63  1  0
 31 64  1  0
 33 65  1  0
 33 66  1  0
 35 67  1  0
 36 68  1  0
 37 69  1  0
 38 70  1  0
 39 71  1  0
M  END
> <Name>
Molecule

> <Clean Energy>
72.3026

> <From>
www.bindingDB.org

> <BindingDB Reactant_set_id>
50952930

> <Ligand InChI>
InChI=1S/C30H32N2O5S2/c1-3-37-39(33,34)21-18-23-16-17-26(35-2)27(22-23)36-20-11-10-19-31-30-32-28(24-12-6-4-7-13-24)29(38-30)25-14-8-5-9-15-25/h4-9,12-18,21-22H,3,10-11,19-20H2,1-2H3,(H,31,32)/b21-18+

> <Ligand InChI Key>
JZFJSKKSIUFSTD-DYTRJAOYSA-N

> <BindingDB MonomerID>
50391119

> <BindingDB Ligand Name>
CHEMBL2087685

> <Target Name>
Tyrosine-protein phosphatase non-receptor type 1

> <Target Source Organism According to Curator or DataSource>
Homo sapiens

> <IC50 (nM)>
5100

> <Curation/DataSource>
ChEMBL

> <Article DOI>
10.1016/j.ejmech.2012.09.015

> <BindingDB Entry DOI>
10.7270/Q2HX1DRS

> <PMID>
23043764

> <Authors>
Liu, J; Jiang, F; Jin, Y; Zhang, Y; Liu, J; Liu, W; Fu, L

> <Institution>
Shanghai Jiao Tong University

> <Link to Ligand in BindingDB>
http://www.bindingdb.org/bind/chemsearch/marvin/MolStructure.jsp?monomerid=50391119

> <Link to Ligand-Target Pair in BindingDB>
http://www.bindingdb.org/jsp/dbsearch/PrimarySearch_ki.jsp?energyterm=kJ/mole&tag=pol&polymerid=2622&target=Tyrosine-protein+phosphatase+non-receptor+type+1&column=ki&startPg=0&Increment=50&submit=Sea
rch
http://www.bindingdb.org/jsp/dbsearch/PrimarySearch_ki.jsp?energyterm=kJ/mole&tag=r21&monomerid=50391119&enzyme=Tyrosine-protein+phosphatase+non-receptor+type+1&column=ki&startPg=0&Increment=50&submit
=Search

> <PubChem CID of Ligand>
70691147

> <PubChem SID of Ligand>
160870202

> <ChEMBL ID of Ligand>
CHEMBL2087685

> <ZINC ID of Ligand>
ZINC84730703

> <Number of Protein Chains in Target (bigger than 1 implies a multichain complex)>
1

> <BindingDB Target Chain Sequence>
MEMEKEFEQIDKSGSWAAIYQDIRHEASDFPCRVAKLPKNKNRNRYRDVSPFDHSRIKLHQEDNDYINASLIKMEEAQRSYILTQGPLPNTCGHFWEMVWEQKSRGVVMLNRVMEKGSLKCAQYWPQKEEKEMIFEDTNLKLTLISEDIKSYYTVRQLELENLTTQETREILHFHYTTWPDFGVPESPASFLNFLFKVRE
SGSLSPEHGPVVVHCSAGIGRSGTFCLADTCLLLMDKRKDPSSVDIKKVLLEMRKFRMGLIQTADQLRFSYLAVIEGAKFIMGDSSVQDQWKELSHEDLEPPPEHIPPPPRPPKRILEPHNGKCREFFPNHQWVKEETQEDKDCPIKEEKGSPLNAAPYGIESMSQDTEVRSRVVGGSLRGAQAASPAKGEPSLPEKDED
HALSYWKPFLVNMCVATVLTAGAYLCYRFLFNSNT

> <PDB ID(s) of Target Chain>
1BZJ,1G7G,1GFY,1JF7,1KAK,1KAV,1LQF,1NL9,1NNY,1NO6,1NZ7,1OEM,1OEO,1OES,1OET,1OEU,1OEV,1ONY,1ONZ,1PH0,1PXH,1PYN,1Q1M,1Q6J,1Q6M,1Q6N,1Q6P,1Q6S,1Q6T,1QXK,1SUG,1T48,1T49,1T4J,1WAX,1XBO,2AZR,2B07,2BGD,2BGE,
2CM2,2CM3,2CM7,2CM8,2CMA,2CMB,2CMC,2CNE,2CNF,2CNG,2CNH,2CNI,2F6T,2F6V,2F6W,2F6Y,2F6Z,2F70,2F71,2FJN,2H4G,2H4K,2HB1,2HNP,2HNQ,2QBP,2QBQ,2QBR,2QBS,2VEU,2VEV,2VEW,2VEX,2VEY,2ZMM,2ZN7,3A5J,3CWE,3D9C,3EAX,
3EB1,3EU0,3I7Z,3I80,3SME,4BJO,4I8N,4QBW,4Y14,5K9V,5K9W,5KA0,5KA1,5T19,6B90,6NTP,6W30,7KEY,7KLX,7LFO,7MN9,7MNA,8DU7,8G65,8G67,8G68,8G69,8G6A,8SKL

> <UniProt (SwissProt) Recommended Name of Target Chain>
Tyrosine-protein phosphatase non-receptor type 1

> <UniProt (SwissProt) Entry Name of Target Chain>
PTN1_HUMAN

> <UniProt (SwissProt) Primary ID of Target Chain>
P18031

> <UniProt (SwissProt) Secondary ID(s) of Target Chain>
Q5TGD8 Q9BQV9 Q9NQQ4

$$$$
Molecule
  SciTegic10242319433D

 34 35  0  0  0  0            999 V2000
   22.8114  -16.4391   -0.0791 C   0  0  2  0  0  0
   22.5638  -17.9131    0.2530 C   0  0  2  0  0  0
   23.6687  -18.7368   -0.3743 C   0  0  1  0  0  0
   24.9984  -18.2831    0.1990 C   0  0  2  0  0  0
   25.2029  -16.7507   -0.1244 C   0  0  1  0  0  0
   24.0914  -16.0106    0.4529 O   0  0
   26.4447  -16.0967    0.4075 O   0  0
   27.7669  -16.5560   -0.0547 C   0  0  2  0  0  0
   25.9952  -19.0961   -0.4057 O   0  0
   23.4690  -20.1187   -0.0771 O   0  0
   21.3033  -18.3237   -0.2784 O   0  0
   28.3464  -17.8493    0.5630 C   0  0
   29.7132  -17.6729    0.0347 C   0  0
   30.0117  -16.3554   -0.1303 O   0  0
   28.9028  -15.5671    0.2726 C   0  0
   21.6838  -15.6004    0.5458 C   0  0
   21.8824  -14.2223    0.2321 O   0  0
   27.7597  -16.6619   -1.1476 H   0  0
   30.5347  -18.5899   -0.0732 O   0  0
   22.8056  -16.3055   -1.1609 H   0  0
   22.5699  -18.0524    1.3340 H   0  0
   23.6665  -18.5904   -1.4544 H   0  0
   25.0047  -18.4352    1.2783 H   0  0
   25.1800  -16.6200   -1.2063 H   0  0
   25.8118  -20.1043   -0.1764 H   0  0
   23.4798  -20.2586    0.9635 H   0  0
   20.5387  -17.7401    0.1426 H   0  0
   28.3127  -17.8474    1.6525 H   0  0
   27.8621  -18.7499    0.1856 H   0  0
   28.9391  -15.3246    1.3346 H   0  0
   28.8233  -14.6480   -0.3080 H   0  0
   20.7240  -15.9285    0.1468 H   0  0
   21.6918  -15.7309    1.6279 H   0  0
   22.8068  -13.9051    0.6161 H   0  0
  1  2  1  0
  1  6  1  0
  2  3  1  0
  3  4  1  0
  4  5  1  0
  5  6  1  0
  5  7  1  0
  7  8  1  0
  4  9  1  0
  3 10  1  0
  2 11  1  0
  8 12  1  0
 12 13  1  0
 13 14  1  0
 14 15  1  0
 15  8  1  0
  1 16  1  0
 16 17  1  0
  8 18  1  0
 13 19  2  0
  1 20  1  0
  2 21  1  0
  3 22  1  0
  4 23  1  0
  5 24  1  0
  9 25  1  0
 10 26  1  0
 11 27  1  0
 12 28  1  0
 12 29  1  0
 15 30  1  0
 15 31  1  0
 16 32  1  0
 16 33  1  0
 17 34  1  0
M  END
> <Name>
Molecule

> <Clean Energy>
24.3548

> <From>
www.bindingDB.org

> <BindingDB Reactant_set_id>
51399970

> <Ligand InChI>
InChI=1S/C10H16O8/c11-2-5-7(13)8(14)9(15)10(18-5)17-4-1-6(12)16-3-4/h4-5,7-11,13-15H,1-3H2/t4-,5-,7-,8+,9-,10-/m1/s1

> <Ligand InChI Key>
MQEPWBMWFIVRPS-ZGSHZZHUSA-N

> <BindingDB MonomerID>
50565474

> <BindingDB Ligand Name>
CHEMBL4781365

> <Target Name>
Tyrosine-protein phosphatase non-receptor type 1

> <Target Source Organism According to Curator or DataSource>
Homo sapiens

> <IC50 (nM)>
5140

> <Curation/DataSource>
ChEMBL

> <Article DOI>
10.1016/j.ejmech.2020.112508

> <BindingDB Entry DOI>
10.7270/Q2QJ7N1M

> <PMID>
32738350

> <Authors>
Lei, S; Zhang, D; Qi, Y; Chowdhury, SR; Sun, R; Wang, J; Du, Y; Fu, L; Jiang, F

> <Institution>
Shanghai Jiao Tong University

> <Link to Ligand in BindingDB>
http://www.bindingdb.org/bind/chemsearch/marvin/MolStructure.jsp?monomerid=50565474

> <Link to Ligand-Target Pair in BindingDB>
http://www.bindingdb.org/jsp/dbsearch/PrimarySearch_ki.jsp?energyterm=kJ/mole&tag=pol&polymerid=2622&target=Tyrosine-protein+phosphatase+non-receptor+type+1&column=ki&startPg=0&Increment=50&submit=Sea
rch
http://www.bindingdb.org/jsp/dbsearch/PrimarySearch_ki.jsp?energyterm=kJ/mole&tag=r21&monomerid=50565474&enzyme=Tyrosine-protein+phosphatase+non-receptor+type+1&column=ki&startPg=0&Increment=50&submit
=Search

> <PubChem CID of Ligand>
10422896

> <PubChem SID of Ligand>
461685812

> <KEGG ID of Ligand>
C03400

> <Number of Protein Chains in Target (bigger than 1 implies a multichain complex)>
1

> <BindingDB Target Chain Sequence>
MEMEKEFEQIDKSGSWAAIYQDIRHEASDFPCRVAKLPKNKNRNRYRDVSPFDHSRIKLHQEDNDYINASLIKMEEAQRSYILTQGPLPNTCGHFWEMVWEQKSRGVVMLNRVMEKGSLKCAQYWPQKEEKEMIFEDTNLKLTLISEDIKSYYTVRQLELENLTTQETREILHFHYTTWPDFGVPESPASFLNFLFKVRE
SGSLSPEHGPVVVHCSAGIGRSGTFCLADTCLLLMDKRKDPSSVDIKKVLLEMRKFRMGLIQTADQLRFSYLAVIEGAKFIMGDSSVQDQWKELSHEDLEPPPEHIPPPPRPPKRILEPHNGKCREFFPNHQWVKEETQEDKDCPIKEEKGSPLNAAPYGIESMSQDTEVRSRVVGGSLRGAQAASPAKGEPSLPEKDED
HALSYWKPFLVNMCVATVLTAGAYLCYRFLFNSNT

> <PDB ID(s) of Target Chain>
1BZJ,1G7G,1GFY,1JF7,1KAK,1KAV,1LQF,1NL9,1NNY,1NO6,1NZ7,1OEM,1OEO,1OES,1OET,1OEU,1OEV,1ONY,1ONZ,1PH0,1PXH,1PYN,1Q1M,1Q6J,1Q6M,1Q6N,1Q6P,1Q6S,1Q6T,1QXK,1SUG,1T48,1T49,1T4J,1WAX,1XBO,2AZR,2B07,2BGD,2BGE,
2CM2,2CM3,2CM7,2CM8,2CMA,2CMB,2CMC,2CNE,2CNF,2CNG,2CNH,2CNI,2F6T,2F6V,2F6W,2F6Y,2F6Z,2F70,2F71,2FJN,2H4G,2H4K,2HB1,2HNP,2HNQ,2QBP,2QBQ,2QBR,2QBS,2VEU,2VEV,2VEW,2VEX,2VEY,2ZMM,2ZN7,3A5J,3CWE,3D9C,3EAX,
3EB1,3EU0,3I7Z,3I80,3SME,4BJO,4I8N,4QBW,4Y14,5K9V,5K9W,5KA0,5KA1,5T19,6B90,6NTP,6W30,7KEY,7KLX,7LFO,7MN9,7MNA,8DU7,8G65,8G67,8G68,8G69,8G6A,8SKL

> <UniProt (SwissProt) Recommended Name of Target Chain>
Tyrosine-protein phosphatase non-receptor type 1

> <UniProt (SwissProt) Entry Name of Target Chain>
PTN1_HUMAN

> <UniProt (SwissProt) Primary ID of Target Chain>
P18031

> <UniProt (SwissProt) Secondary ID(s) of Target Chain>
Q5TGD8 Q9BQV9 Q9NQQ4

$$$$
Molecule
  SciTegic10242319433D

 49 52  0  0  0  0            999 V2000
   -1.3839   -3.2478    0.0002 C   0  0
   -2.1363   -2.1521    0.0002 C   0  0
   -1.5179   -0.8630    0.0002 C   0  0
   -0.2118   -0.6783    0.0001 C   0  0
    0.6598   -1.8940    0.0001 C   0  0
    0.0822   -3.1053    0.0001 C   0  0
   -3.5970   -2.1956    0.0003 C   0  0
    2.0818   -1.7891    0.0000 O   0  0
    2.6657   -3.1205    0.0000 C   0  0
    4.1775   -3.1104    0.0000 C   0  0
    4.8574   -1.9647    0.0002 C   0  0
    6.3302   -1.9882    0.0002 C   0  0
    6.9825   -3.1514   -0.0001 C   0  0
    6.2342   -4.4082   -0.0003 C   0  0
    4.9024   -4.3893   -0.0003 C   0  0
    8.7124   -3.1786   -0.0001 Cl  0  0
    0.3944    0.7216    0.0001 C   0  0
   -0.1941    1.9610   -0.0001 C   0  0
   -1.6764    2.3062   -0.0004 C   0  0
   -2.0532    3.5792   -0.0004 N   0  0
   -1.1336    4.6122   -0.0003 C   0  0
    0.2414    4.3506   -0.0001 N   0  0
    0.7186    3.1017   -0.0001 C   0  0
   -2.5726    1.4722   -0.0005 O   0  0
    1.9363    2.9160    0.0001 O   0  0
   -1.6486    6.0896   -0.0003 S   0  0
   -4.2685   -3.3439    0.0002 C   0  0
   -5.7423   -3.3197    0.0003 C   0  0
   -6.3949   -2.1560    0.0004 C   0  0
   -5.6515   -0.9034    0.0005 C   0  0
   -4.3241   -0.9245    0.0005 C   0  0
   -7.7850   -2.1352    0.0004 O   0  0
   -6.4902    0.6084    0.0007 Cl  0  0
   -6.6314   -4.7983    0.0001 Cl  0  0
   -1.8444   -4.2358    0.0002 H   0  0
   -2.1619    0.0164    0.0003 H   0  0
    0.7079   -3.9979    0.0001 H   0  0
    2.3234   -3.6483    0.8901 H   0  0
    2.3234   -3.6482   -0.8902 H   0  0
    4.3256   -1.0132    0.0004 H   0  0
    6.8886   -1.0521    0.0004 H   0  0
    6.7660   -5.3596   -0.0005 H   0  0
    4.3470   -5.3272   -0.0005 H   0  0
    1.4842    0.7406    0.0002 H   0  0
   -3.0975    3.8126   -0.0006 H   0  0
    0.9282    5.1711   -0.0001 H   0  0
   -3.7339   -4.2938    0.0001 H   0  0
   -3.7697    0.0140    0.0005 H   0  0
   -8.1429   -2.6246   -0.8568 H   0  0
  2  1  2  0
  3  2  1  0
  4  3  2  0
  5  4  1  0
  1  6  1  0
  6  5  2  0
  2  7  1  0
  5  8  1  0
  8  9  1  0
  9 10  1  0
 11 10  2  0
 12 11  1  0
 13 12  2  0
 14 13  1  0
 15 14  2  0
 10 15  1  0
 13 16  1  0
  4 17  1  0
 17 18  2  0
 19 18  1  0
 20 19  1  0
 21 20  1  0
 22 21  1  0
 23 22  1  0
 18 23  1  0
 19 24  2  0
 23 25  2  0
 21 26  2  0
 27  7  2  0
 28 27  1  0
 29 28  2  0
 30 29  1  0
 31 30  2  0
  7 31  1  0
 29 32  1  0
 30 33  1  0
 28 34  1  0
  1 35  1  0
  3 36  1  0
  6 37  1  0
  9 38  1  0
  9 39  1  0
 11 40  1  0
 12 41  1  0
 14 42  1  0
 15 43  1  0
 17 44  1  0
 20 45  1  0
 22 46  1  0
 27 47  1  0
 31 48  1  0
 32 49  1  0
M  END
> <Name>
Molecule

> <Clean Energy>
6.03136

> <From>
www.bindingDB.org

> <BindingDB Reactant_set_id>
51506623

> <Ligand InChI>
InChI=1S/C24H15Cl3N2O4S/c25-16-4-1-12(2-5-16)11-33-20-6-3-13(14-9-18(26)21(30)19(27)10-14)7-15(20)8-17-22(31)28-24(34)29-23(17)32/h1-10,30H,11H2,(H2,28,29,31,32,34)

> <Ligand InChI Key>
QVBNRWITESBSFO-UHFFFAOYSA-N

> <BindingDB MonomerID>
50606980

> <BindingDB Ligand Name>
CHEMBL5220804

> <Target Name>
Tyrosine-protein phosphatase non-receptor type 1

> <Target Source Organism According to Curator or DataSource>
Homo sapiens

> <IC50 (nM)>
5160

> <Curation/DataSource>
ChEMBL

> <BindingDB Entry DOI>
10.7270/Q2RR23CZ

> <PMID>
36150342

> <Authors>
Cheng, S; Wang, Q; Chen, X; Chen, J; Wang, B; Chen, D; Shen, D; Tian, J; Ye, F; Lu, Y; Huang, H; Lu, Y; Zhang, D

> <Institution>
Peking Union Medical College and Chinese Academy of Medical Sciences

> <Link to Ligand in BindingDB>
http://www.bindingdb.org/bind/chemsearch/marvin/MolStructure.jsp?monomerid=50606980

> <Link to Ligand-Target Pair in BindingDB>
http://www.bindingdb.org/jsp/dbsearch/PrimarySearch_ki.jsp?energyterm=kJ/mole&tag=pol&polymerid=2622&target=Tyrosine-protein+phosphatase+non-receptor+type+1&column=ki&startPg=0&Increment=50&submit=Sea
rch
http://www.bindingdb.org/jsp/dbsearch/PrimarySearch_ki.jsp?energyterm=kJ/mole&tag=r21&monomerid=50606980&enzyme=Tyrosine-protein+phosphatase+non-receptor+type+1&column=ki&startPg=0&Increment=50&submit
=Search

> <PubChem CID of Ligand>
168299743

> <PubChem SID of Ligand>
482617831

> <Number of Protein Chains in Target (bigger than 1 implies a multichain complex)>
1

> <BindingDB Target Chain Sequence>
MEMEKEFEQIDKSGSWAAIYQDIRHEASDFPCRVAKLPKNKNRNRYRDVSPFDHSRIKLHQEDNDYINASLIKMEEAQRSYILTQGPLPNTCGHFWEMVWEQKSRGVVMLNRVMEKGSLKCAQYWPQKEEKEMIFEDTNLKLTLISEDIKSYYTVRQLELENLTTQETREILHFHYTTWPDFGVPESPASFLNFLFKVRE
SGSLSPEHGPVVVHCSAGIGRSGTFCLADTCLLLMDKRKDPSSVDIKKVLLEMRKFRMGLIQTADQLRFSYLAVIEGAKFIMGDSSVQDQWKELSHEDLEPPPEHIPPPPRPPKRILEPHNGKCREFFPNHQWVKEETQEDKDCPIKEEKGSPLNAAPYGIESMSQDTEVRSRVVGGSLRGAQAASPAKGEPSLPEKDED
HALSYWKPFLVNMCVATVLTAGAYLCYRFLFNSNT

> <PDB ID(s) of Target Chain>
1BZJ,1G7G,1GFY,1JF7,1KAK,1KAV,1LQF,1NL9,1NNY,1NO6,1NZ7,1OEM,1OEO,1OES,1OET,1OEU,1OEV,1ONY,1ONZ,1PH0,1PXH,1PYN,1Q1M,1Q6J,1Q6M,1Q6N,1Q6P,1Q6S,1Q6T,1QXK,1SUG,1T48,1T49,1T4J,1WAX,1XBO,2AZR,2B07,2BGD,2BGE,
2CM2,2CM3,2CM7,2CM8,2CMA,2CMB,2CMC,2CNE,2CNF,2CNG,2CNH,2CNI,2F6T,2F6V,2F6W,2F6Y,2F6Z,2F70,2F71,2FJN,2H4G,2H4K,2HB1,2HNP,2HNQ,2QBP,2QBQ,2QBR,2QBS,2VEU,2VEV,2VEW,2VEX,2VEY,2ZMM,2ZN7,3A5J,3CWE,3D9C,3EAX,
3EB1,3EU0,3I7Z,3I80,3SME,4BJO,4I8N,4QBW,4Y14,5K9V,5K9W,5KA0,5KA1,5T19,6B90,6NTP,6W30,7KEY,7KLX,7LFO,7MN9,7MNA,8DU7,8G65,8G67,8G68,8G69,8G6A,8SKL

> <UniProt (SwissProt) Recommended Name of Target Chain>
Tyrosine-protein phosphatase non-receptor type 1

> <UniProt (SwissProt) Entry Name of Target Chain>
PTN1_HUMAN

> <UniProt (SwissProt) Primary ID of Target Chain>
P18031

> <UniProt (SwissProt) Secondary ID(s) of Target Chain>
Q5TGD8 Q9BQV9 Q9NQQ4

$$$$
Molecule
  SciTegic10242319433D

 31 33  0  0  0  0            999 V2000
   19.7201   -6.5157    0.0000 C   0  0
   19.7735   -7.8511    0.0002 C   0  0
   18.5543   -8.6412    0.0003 C   0  0
   18.6091   -9.8757    0.0004 O   0  0
   17.2885   -7.9478    0.0001 C   0  0
   16.1281   -8.6054    0.0002 C   0  0
   14.8711   -7.8558    0.0001 C   0  0
   14.8917   -6.5240   -0.0001 C   0  0
   16.1724   -5.8116   -0.0002 C   0  0
   17.3130   -6.4985    0.0000 C   0  0
   18.5120   -5.8418   -0.0001 O   0  0
   20.9799   -5.7620    0.0000 C   0  0
   20.9824   -4.4269   -0.0003 C   0  0
   22.2549   -3.6993   -0.0003 C   0  0
   23.4073   -4.3668   -0.0001 C   0  0
   23.4054   -5.8291    0.0002 C   0  0
   22.2514   -6.4925    0.0002 C   0  0
   24.6130   -3.6736   -0.0001 O   0  0
   19.7873   -3.7161   -0.0005 O   0  0
   13.6980   -5.8105   -0.0002 O   0  0
   16.1017   -9.9960    0.0004 O   0  0
   20.7414   -8.3525    0.0003 H   0  0
   13.9192   -8.3868    0.0000 H   0  0
   16.1911   -4.7217   -0.0004 H   0  0
   22.2579   -2.6093   -0.0005 H   0  0
   24.3485   -6.3756    0.0004 H   0  0
   22.2515   -7.5825    0.0005 H   0  0
   24.6703   -3.0701   -0.8574 H   0  0
   19.2332   -3.9624   -0.8578 H   0  0
   13.1433   -6.0555   -0.8574 H   0  0
   16.5897  -10.3560   -0.8568 H   0  0
  1  2  2  0
  2  3  1  0
  3  4  2  0
  3  5  1  0
  5  6  2  0
  6  7  1  0
  7  8  2  0
  8  9  1  0
  9 10  2  0
  5 10  1  0
 10 11  1  0
  1 11  1  0
  1 12  1  0
 12 13  2  0
 13 14  1  0
 14 15  2  0
 15 16  1  0
 16 17  2  0
 12 17  1  0
 15 18  1  0
 13 19  1  0
  8 20  1  0
  6 21  1  0
  2 22  1  0
  7 23  1  0
  9 24  1  0
 14 25  1  0
 16 26  1  0
 17 27  1  0
 18 28  1  0
 19 29  1  0
 20 30  1  0
 21 31  1  0
M  END
> <Name>
Molecule

> <Clean Energy>
-3.16063

> <From>
www.bindingDB.org

> <BindingDB Reactant_set_id>
51133450

> <Ligand InChI>
InChI=1S/C15H10O6/c16-7-1-2-9(10(18)3-7)13-6-12(20)15-11(19)4-8(17)5-14(15)21-13/h1-6,16-19H

> <Ligand InChI Key>
ZSYPIPFQOQGYHH-UHFFFAOYSA-N

> <BindingDB MonomerID>
50269559

> <BindingDB Ligand Name>
2-(2,4-dihydroxyphenyl)-5,7-dihydroxy-4H-chromen-4-one::CHEMBL463145::Norartocarpetin, 5::norartocarpetin

> <Target Name>
Tyrosine-protein phosphatase non-receptor type 1

> <Target Source Organism According to Curator or DataSource>
Homo sapiens

> <IC50 (nM)>
5180

> <Curation/DataSource>
ChEMBL

> <Article DOI>
10.1016/j.ejmech.2017.11.087

> <BindingDB Entry DOI>
10.7270/Q2GX4F79

> <PMID>
29275228

> <Authors>
Mascarello, A; Orbem Menegatti, AC; Calcaterra, A; Martins, PGA; Chiaradia-Delatorre, LD; D'Acquarica, I; Ferrari, F; Pau, V; Sanna, A; De Logu, A; Botta, M; Botta, B; Terenzi, H; Mori, M

> <Institution>
Universidade Federal de Santa Catarina

> <Link to Ligand in BindingDB>
http://www.bindingdb.org/bind/chemsearch/marvin/MolStructure.jsp?monomerid=50269559

> <Link to Ligand-Target Pair in BindingDB>
http://www.bindingdb.org/jsp/dbsearch/PrimarySearch_ki.jsp?energyterm=kJ/mole&tag=pol&polymerid=2622&target=Tyrosine-protein+phosphatase+non-receptor+type+1&column=ki&startPg=0&Increment=50&submit=Sea
rch
http://www.bindingdb.org/jsp/dbsearch/PrimarySearch_ki.jsp?energyterm=kJ/mole&tag=r21&monomerid=50269559&enzyme=Tyrosine-protein+phosphatase+non-receptor+type+1&column=ki&startPg=0&Increment=50&submit
=Search

> <PubChem CID of Ligand>
5481970

> <PubChem SID of Ligand>
104115213

> <ChEMBL ID of Ligand>
CHEMBL463145

> <ZINC ID of Ligand>
ZINC14756811

> <Number of Protein Chains in Target (bigger than 1 implies a multichain complex)>
1

> <BindingDB Target Chain Sequence>
MEMEKEFEQIDKSGSWAAIYQDIRHEASDFPCRVAKLPKNKNRNRYRDVSPFDHSRIKLHQEDNDYINASLIKMEEAQRSYILTQGPLPNTCGHFWEMVWEQKSRGVVMLNRVMEKGSLKCAQYWPQKEEKEMIFEDTNLKLTLISEDIKSYYTVRQLELENLTTQETREILHFHYTTWPDFGVPESPASFLNFLFKVRE
SGSLSPEHGPVVVHCSAGIGRSGTFCLADTCLLLMDKRKDPSSVDIKKVLLEMRKFRMGLIQTADQLRFSYLAVIEGAKFIMGDSSVQDQWKELSHEDLEPPPEHIPPPPRPPKRILEPHNGKCREFFPNHQWVKEETQEDKDCPIKEEKGSPLNAAPYGIESMSQDTEVRSRVVGGSLRGAQAASPAKGEPSLPEKDED
HALSYWKPFLVNMCVATVLTAGAYLCYRFLFNSNT

> <PDB ID(s) of Target Chain>
1BZJ,1G7G,1GFY,1JF7,1KAK,1KAV,1LQF,1NL9,1NNY,1NO6,1NZ7,1OEM,1OEO,1OES,1OET,1OEU,1OEV,1ONY,1ONZ,1PH0,1PXH,1PYN,1Q1M,1Q6J,1Q6M,1Q6N,1Q6P,1Q6S,1Q6T,1QXK,1SUG,1T48,1T49,1T4J,1WAX,1XBO,2AZR,2B07,2BGD,2BGE,
2CM2,2CM3,2CM7,2CM8,2CMA,2CMB,2CMC,2CNE,2CNF,2CNG,2CNH,2CNI,2F6T,2F6V,2F6W,2F6Y,2F6Z,2F70,2F71,2FJN,2H4G,2H4K,2HB1,2HNP,2HNQ,2QBP,2QBQ,2QBR,2QBS,2VEU,2VEV,2VEW,2VEX,2VEY,2ZMM,2ZN7,3A5J,3CWE,3D9C,3EAX,
3EB1,3EU0,3I7Z,3I80,3SME,4BJO,4I8N,4QBW,4Y14,5K9V,5K9W,5KA0,5KA1,5T19,6B90,6NTP,6W30,7KEY,7KLX,7LFO,7MN9,7MNA,8DU7,8G65,8G67,8G68,8G69,8G6A,8SKL

> <UniProt (SwissProt) Recommended Name of Target Chain>
Tyrosine-protein phosphatase non-receptor type 1

> <UniProt (SwissProt) Entry Name of Target Chain>
PTN1_HUMAN

> <UniProt (SwissProt) Primary ID of Target Chain>
P18031

> <UniProt (SwissProt) Secondary ID(s) of Target Chain>
Q5TGD8 Q9BQV9 Q9NQQ4

$$$$
Molecule
  SciTegic10242319433D

 46 49  0  0  0  0            999 V2000
    6.8589  -14.6176    0.0001 O   0  0
    8.1286  -15.3770    0.0001 C   0  0
    8.0360  -16.7096    0.0000 C   0  0
    9.2441  -17.5611    0.0001 C   0  0
   10.4578  -17.0113    0.0001 C   0  0
   10.5850  -15.5560    0.0002 C   0  0
    9.4963  -14.7849    0.0001 C   0  0
   11.6680  -17.8672    0.0001 C   0  0
   11.6734  -19.5183    0.0001 S   0  0
   13.3212  -19.6798    0.0001 C   0  0
   13.8525  -18.5100    0.0002 N   0  0
   12.8833  -17.4482    0.0002 N   0  0
   14.0105  -20.9176    0.0001 N   0  0
   15.3455  -21.0007    0.0001 C   0  0
   15.9870  -22.3277    0.0000 C   0  0
   16.0409  -19.9787    0.0001 O   0  0
   15.2319  -23.4253    0.0000 C   0  0
   15.8582  -24.7509   -0.0001 C   0  0
   17.1853  -24.8616   -0.0001 C   0  0
   18.0209  -23.6580    0.0000 C   0  0
   17.4531  -22.4503    0.0000 C   0  0
    6.7660  -13.1518    0.0000 C   0  0
    7.8233  -12.3355   -0.0001 C   0  0
    7.6667  -10.8835   -0.0001 C   0  0
    6.4535  -10.3424   -0.0001 C   0  0
    5.2775  -11.2015    0.0000 C   0  0
    5.4092  -12.5273    0.0001 C   0  0
    6.3115   -8.9548   -0.0001 N   0  3
    5.2391   -8.4727    0.0000 O   0  0
    7.3864   -8.1807   -0.0002 O   0  5
   19.7437  -23.8089    0.0000 Cl  0  0
    4.2503  -13.3156    0.0002 N   0  3
    4.3225  -14.4873    0.0003 O   0  0
    3.0601  -12.7275    0.0003 O   0  5
    7.0515  -17.1776    0.0000 H   0  0
    9.1415  -18.6462    0.0000 H   0  0
   11.5741  -15.0979    0.0002 H   0  0
    9.6093  -13.7008    0.0001 H   0  0
   13.4399  -21.8228    0.0000 H   0  0
   14.1454  -23.3376    0.0000 H   0  0
   15.2371  -25.6467   -0.0001 H   0  0
   17.6500  -25.8476   -0.0001 H   0  0
   18.0752  -21.5552    0.0001 H   0  0
    8.8260  -12.7629   -0.0001 H   0  0
    8.5478  -10.2419   -0.0002 H   0  0
    4.2825  -10.7566    0.0001 H   0  0
  1  2  1  0
  2  3  2  0
  3  4  1  0
  4  5  2  0
  5  6  1  0
  6  7  2  0
  7  2  1  0
  8  9  1  0
  9 10  1  0
 10 11  2  0
 11 12  1  0
 12  8  2  0
  5  8  1  0
 10 13  1  0
 13 14  1  0
 14 15  1  0
 14 16  2  0
 15 17  2  0
 17 18  1  0
 18 19  2  0
 19 20  1  0
 20 21  2  0
 21 15  1  0
  1 22  1  0
 22 23  2  0
 23 24  1  0
 24 25  2  0
 25 26  1  0
 26 27  2  0
 27 22  1  0
 28 29  2  0
 28 30  1  0
 25 28  1  0
 20 31  1  0
 32 33  2  0
 32 34  1  0
 27 32  1  0
  3 35  1  0
  4 36  1  0
  6 37  1  0
  7 38  1  0
 13 39  1  0
 17 40  1  0
 18 41  1  0
 19 42  1  0
 21 43  1  0
 23 44  1  0
 24 45  1  0
 26 46  1  0
M  CHG  4  28   1  30  -1  32   1  34  -1
M  END
> <Name>
Molecule

> <Clean Energy>
29.9077

> <From>
www.bindingDB.org

> <BindingDB Reactant_set_id>
50289286

> <Ligand InChI>
InChI=1S/C21H12ClN5O6S/c22-14-3-1-2-13(10-14)19(28)23-21-25-24-20(34-21)12-4-7-16(8-5-12)33-18-9-6-15(26(29)30)11-17(18)27(31)32/h1-11H,(H,23,25,28)

> <Ligand InChI Key>
MUAUKMYYMZVYRG-UHFFFAOYSA-N

> <BindingDB MonomerID>
50057714

> <BindingDB Ligand Name>
CHEMBL3322851

> <Target Name>
Tyrosine-protein phosphatase non-receptor type 1

> <Target Source Organism According to Curator or DataSource>
Homo sapiens

> <IC50 (nM)>
6700

> <Curation/DataSource>
ChEMBL

> <Article DOI>
10.1016/j.bmcl.2014.07.055

> <BindingDB Entry DOI>
10.7270/Q2MP54XR

> <PMID>
25124112

> <Authors>
Li, Y; Yu, Y; Jin, K; Gao, L; Luo, T; Sheng, L; Shao, X; Li, J

> <Institution>
Liaoning Normal University

> <Link to Ligand in BindingDB>
http://www.bindingdb.org/bind/chemsearch/marvin/MolStructure.jsp?monomerid=50057714

> <Link to Ligand-Target Pair in BindingDB>
http://www.bindingdb.org/jsp/dbsearch/PrimarySearch_ki.jsp?energyterm=kJ/mole&tag=pol&polymerid=2622&target=Tyrosine-protein+phosphatase+non-receptor+type+1&column=ki&startPg=0&Increment=50&submit=Sea
rch
http://www.bindingdb.org/jsp/dbsearch/PrimarySearch_ki.jsp?energyterm=kJ/mole&tag=r21&monomerid=50057714&enzyme=Tyrosine-protein+phosphatase+non-receptor+type+1&column=ki&startPg=0&Increment=50&submit
=Search

> <PubChem CID of Ligand>
118710353

> <PubChem SID of Ligand>
103953736

> <ChEMBL ID of Ligand>
CHEMBL3322851

> <ZINC ID of Ligand>
ZINC43676484

> <Number of Protein Chains in Target (bigger than 1 implies a multichain complex)>
1

> <BindingDB Target Chain Sequence>
MEMEKEFEQIDKSGSWAAIYQDIRHEASDFPCRVAKLPKNKNRNRYRDVSPFDHSRIKLHQEDNDYINASLIKMEEAQRSYILTQGPLPNTCGHFWEMVWEQKSRGVVMLNRVMEKGSLKCAQYWPQKEEKEMIFEDTNLKLTLISEDIKSYYTVRQLELENLTTQETREILHFHYTTWPDFGVPESPASFLNFLFKVRE
SGSLSPEHGPVVVHCSAGIGRSGTFCLADTCLLLMDKRKDPSSVDIKKVLLEMRKFRMGLIQTADQLRFSYLAVIEGAKFIMGDSSVQDQWKELSHEDLEPPPEHIPPPPRPPKRILEPHNGKCREFFPNHQWVKEETQEDKDCPIKEEKGSPLNAAPYGIESMSQDTEVRSRVVGGSLRGAQAASPAKGEPSLPEKDED
HALSYWKPFLVNMCVATVLTAGAYLCYRFLFNSNT

> <PDB ID(s) of Target Chain>
1BZJ,1G7G,1GFY,1JF7,1KAK,1KAV,1LQF,1NL9,1NNY,1NO6,1NZ7,1OEM,1OEO,1OES,1OET,1OEU,1OEV,1ONY,1ONZ,1PH0,1PXH,1PYN,1Q1M,1Q6J,1Q6M,1Q6N,1Q6P,1Q6S,1Q6T,1QXK,1SUG,1T48,1T49,1T4J,1WAX,1XBO,2AZR,2B07,2BGD,2BGE,
2CM2,2CM3,2CM7,2CM8,2CMA,2CMB,2CMC,2CNE,2CNF,2CNG,2CNH,2CNI,2F6T,2F6V,2F6W,2F6Y,2F6Z,2F70,2F71,2FJN,2H4G,2H4K,2HB1,2HNP,2HNQ,2QBP,2QBQ,2QBR,2QBS,2VEU,2VEV,2VEW,2VEX,2VEY,2ZMM,2ZN7,3A5J,3CWE,3D9C,3EAX,
3EB1,3EU0,3I7Z,3I80,3SME,4BJO,4I8N,4QBW,4Y14,5K9V,5K9W,5KA0,5KA1,5T19,6B90,6NTP,6W30,7KEY,7KLX,7LFO,7MN9,7MNA,8DU7,8G65,8G67,8G68,8G69,8G6A,8SKL

> <UniProt (SwissProt) Recommended Name of Target Chain>
Tyrosine-protein phosphatase non-receptor type 1

> <UniProt (SwissProt) Entry Name of Target Chain>
PTN1_HUMAN

> <UniProt (SwissProt) Primary ID of Target Chain>
P18031

> <UniProt (SwissProt) Secondary ID(s) of Target Chain>
Q5TGD8 Q9BQV9 Q9NQQ4

$$$$
Molecule
  SciTegic10242319433D

 64 66  0  0  0  0            999 V2000
    3.3932   -4.1239   -0.4928 C   0  0
    3.3714   -5.6532   -0.4794 C   0  0
    4.3905   -6.4069   -0.0560 C   0  0
    4.6444   -3.4974    0.1916 C   0  0
    5.8621   -4.3418   -0.1606 C   0  0  2  0  0  0
    5.6463   -5.7885    0.4749 C   0  0  2  0  0  0
    6.8548   -6.6403    0.1321 C   0  0
    7.2498   -3.6306    0.2786 C   0  0  2  0  0  0
    8.4421   -4.6171   -0.0879 C   0  0  2  0  0  0
    8.1402   -5.9485    0.6854 C   0  0
    9.8197   -3.9467    0.3374 C   0  0
   11.2198   -4.6906    0.1554 C   0  0
   11.4456   -6.1801   -0.0279 C   0  0
   12.6608   -6.6819   -0.1087 C   0  0
   13.8310   -5.8239   -0.0576 C   0  0
   13.6673   -4.5075    0.0810 C   0  0
   12.3113   -3.9207    0.2010 C   0  0
   12.1741   -2.5472    0.3748 O   0  0
   12.7250   -8.0680   -0.2337 N   0  0
   13.7849   -8.7572   -0.2003 C   0  0
   14.7822   -3.6770    0.1245 O   0  0
   10.4507   -7.1067   -0.1029 O   0  0
    8.5097   -4.8942   -1.6193 C   0  0
    7.3436   -3.2824    1.7977 C   0  0
    5.4867   -5.8666    2.0288 C   0  0
    4.2640   -7.9071   -0.0972 C   0  0
   13.6042  -10.2445   -0.3294 C   0  0
   15.1717  -11.1114   -0.1939 S   0  0
   15.8731  -10.7898    1.3198 O   0  0
   14.9244  -12.6020   -0.3320 O   0  0
   16.0951  -10.6424   -1.3005 O   0  0
    3.3686   -3.7909   -1.5304 H   0  0
    2.5043   -3.7649    0.0258 H   0  0
    2.4731   -6.1572   -0.8357 H   0  0
    4.5051   -3.4863    1.2726 H   0  0
    4.7878   -2.4781   -0.1672 H   0  0
    5.8801   -4.4576   -1.2443 H   0  0
    6.9331   -6.7439   -0.9502 H   0  0
    6.7470   -7.6259    0.5850 H   0  0
    7.3679   -2.7126   -0.2970 H   0  0
    7.9957   -5.7217    1.7417 H   0  0
    8.9863   -6.6261    0.5712 H   0  0
    9.8932   -3.0179   -0.2283 H   0  0
    9.7320   -3.7197    1.3999 H   0  0
   14.8313   -6.2506   -0.1317 H   0  0
   11.6099   -2.1485   -0.4159 H   0  0
   14.7683   -8.3014   -0.0851 H   0  0
   15.3892   -3.9475    0.9375 H   0  0
   10.5128   -7.6142   -1.0200 H   0  0
    9.3367   -5.5721   -1.8302 H   0  0
    8.6646   -3.9561   -2.1523 H   0  0
    7.5752   -5.3486   -1.9484 H   0  0
    6.5325   -2.6059    2.0667 H   0  0
    8.3001   -2.8014    2.0023 H   0  0
    7.2639   -4.1965    2.3861 H   0  0
    6.3653   -5.4339    2.5070 H   0  0
    5.3847   -6.9086    2.3322 H   0  0
    4.5986   -5.3119    2.3317 H   0  0
    3.2924   -8.1791   -0.5097 H   0  0
    4.3545   -8.3078    0.9124 H   0  0
    5.0533   -8.3217   -0.7243 H   0  0
   12.9386  -10.5904    0.4614 H   0  0
   13.1606  -10.4645   -1.3005 H   0  0
   16.0365   -9.7572    1.4181 H   0  0
 12 17  2  0
 13 14  2  0
 14 15  1  0
 15 16  2  0
 16 17  1  0
  7 10  1  0
 17 18  1  0
  8  9  1  0
 19 14  1  0
  9 10  1  0
 19 20  2  0
  6  3  1  0
 16 21  1  0
  5  4  1  0
 13 22  1  0
  5  6  1  0
  9 23  1  0
  9 11  1  0
  8 24  1  0
 12 11  1  0
 12 13  1  0
  6 25  1  0
  3 26  1  0
  1  2  1  0
 20 27  1  0
  1  4  1  0
 27 28  1  0
  2  3  2  0
 28 29  1  0
  5  8  1  0
 28 30  2  0
  6  7  1  0
 28 31  2  0
  1 32  1  0
  1 33  1  0
  2 34  1  0
  4 35  1  0
  4 36  1  0
  5 37  1  0
  7 38  1  0
  7 39  1  0
  8 40  1  0
 10 41  1  0
 10 42  1  0
 11 43  1  0
 11 44  1  0
 15 45  1  0
 18 46  1  0
 20 47  1  0
 21 48  1  0
 22 49  1  0
 23 50  1  0
 23 51  1  0
 23 52  1  0
 24 53  1  0
 24 54  1  0
 24 55  1  0
 25 56  1  0
 25 57  1  0
 25 58  1  0
 26 59  1  0
 26 60  1  0
 26 61  1  0
 27 62  1  0
 27 63  1  0
 29 64  1  0
M  END
> <Name>
Molecule

> <Clean Energy>
36.2055

> <From>
www.bindingDB.org

> <BindingDB Reactant_set_id>
50444664

> <Ligand InChI>
InChI=1S/C23H33NO6S/c1-14-6-5-7-17-15(2)22(3,8-9-23(14,17)4)13-16-20(26)18(12-19(25)21(16)27)24-10-11-31(28,29)30/h6,10,12,15,17,25-27H,5,7-9,11,13H2,1-4H3,(H,28,29,30)/t15-,17+,22-,23-/m1/s1

> <Ligand InChI Key>
MTMPMGHBQBTLFK-CIVZFWGOSA-N

> <BindingDB MonomerID>
50269844

> <BindingDB Ligand Name>
CHEMBL517216::Dysidine

> <Target Name>
Tyrosine-protein phosphatase non-receptor type 1

> <Target Source Organism According to Curator or DataSource>
Homo sapiens

> <IC50 (nM)>
6700

> <Curation/DataSource>
ChEMBL

> <Article DOI>
10.1016/j.bmcl.2008.11.068

> <BindingDB Entry DOI>
10.7270/Q2QR4X0D

> <PMID>
19091557

> <Authors>
Li, Y; Zhang, Y; Shen, X; Guo, YW

> <Institution>
Chinese Academy of Sciences

> <Link to Ligand in BindingDB>
http://www.bindingdb.org/bind/chemsearch/marvin/MolStructure.jsp?monomerid=50269844

> <Link to Ligand-Target Pair in BindingDB>
http://www.bindingdb.org/jsp/dbsearch/PrimarySearch_ki.jsp?energyterm=kJ/mole&tag=pol&polymerid=2622&target=Tyrosine-protein+phosphatase+non-receptor+type+1&column=ki&startPg=0&Increment=50&submit=Sea
rch
http://www.bindingdb.org/jsp/dbsearch/PrimarySearch_ki.jsp?energyterm=kJ/mole&tag=r21&monomerid=50269844&enzyme=Tyrosine-protein+phosphatase+non-receptor+type+1&column=ki&startPg=0&Increment=50&submit
=Search

> <PubChem CID of Ligand>
91935158

> <PubChem SID of Ligand>
104115289

> <ChEBI ID of Ligand>
65816

> <ChEMBL ID of Ligand>
CHEMBL517216

> <KEGG ID of Ligand>
C15521

> <ZINC ID of Ligand>
ZINC42876552

> <Number of Protein Chains in Target (bigger than 1 implies a multichain complex)>
1

> <BindingDB Target Chain Sequence>
MEMEKEFEQIDKSGSWAAIYQDIRHEASDFPCRVAKLPKNKNRNRYRDVSPFDHSRIKLHQEDNDYINASLIKMEEAQRSYILTQGPLPNTCGHFWEMVWEQKSRGVVMLNRVMEKGSLKCAQYWPQKEEKEMIFEDTNLKLTLISEDIKSYYTVRQLELENLTTQETREILHFHYTTWPDFGVPESPASFLNFLFKVRE
SGSLSPEHGPVVVHCSAGIGRSGTFCLADTCLLLMDKRKDPSSVDIKKVLLEMRKFRMGLIQTADQLRFSYLAVIEGAKFIMGDSSVQDQWKELSHEDLEPPPEHIPPPPRPPKRILEPHNGKCREFFPNHQWVKEETQEDKDCPIKEEKGSPLNAAPYGIESMSQDTEVRSRVVGGSLRGAQAASPAKGEPSLPEKDED
HALSYWKPFLVNMCVATVLTAGAYLCYRFLFNSNT

> <PDB ID(s) of Target Chain>
1BZJ,1G7G,1GFY,1JF7,1KAK,1KAV,1LQF,1NL9,1NNY,1NO6,1NZ7,1OEM,1OEO,1OES,1OET,1OEU,1OEV,1ONY,1ONZ,1PH0,1PXH,1PYN,1Q1M,1Q6J,1Q6M,1Q6N,1Q6P,1Q6S,1Q6T,1QXK,1SUG,1T48,1T49,1T4J,1WAX,1XBO,2AZR,2B07,2BGD,2BGE,
2CM2,2CM3,2CM7,2CM8,2CMA,2CMB,2CMC,2CNE,2CNF,2CNG,2CNH,2CNI,2F6T,2F6V,2F6W,2F6Y,2F6Z,2F70,2F71,2FJN,2H4G,2H4K,2HB1,2HNP,2HNQ,2QBP,2QBQ,2QBR,2QBS,2VEU,2VEV,2VEW,2VEX,2VEY,2ZMM,2ZN7,3A5J,3CWE,3D9C,3EAX,
3EB1,3EU0,3I7Z,3I80,3SME,4BJO,4I8N,4QBW,4Y14,5K9V,5K9W,5KA0,5KA1,5T19,6B90,6NTP,6W30,7KEY,7KLX,7LFO,7MN9,7MNA,8DU7,8G65,8G67,8G68,8G69,8G6A,8SKL

> <UniProt (SwissProt) Recommended Name of Target Chain>
Tyrosine-protein phosphatase non-receptor type 1

> <UniProt (SwissProt) Entry Name of Target Chain>
PTN1_HUMAN

> <UniProt (SwissProt) Primary ID of Target Chain>
P18031

> <UniProt (SwissProt) Secondary ID(s) of Target Chain>
Q5TGD8 Q9BQV9 Q9NQQ4

$$$$
Molecule
  SciTegic10242319433D

 52 55  0  0  0  0            999 V2000
   10.5021   -0.2149   -1.1781 O   0  0
   11.4258   -0.6926   -0.0737 S   0  0
   10.8959   -0.1602    1.2443 O   0  0
    9.5994  -10.7534    0.0082 N   0  0
   10.9808  -10.7560    0.0180 N   0  0
   11.4475   -9.5002    0.0361 C   0  0
   10.3153   -8.6492    0.0379 C   0  0
    9.1802   -9.5428    0.0194 C   0  0
    7.7612   -9.1562    0.0134 C   0  0
    7.4009   -7.8739    0.0248 C   0  0
    5.9832   -7.5087    0.0187 C   0  0
    5.0506   -8.4593    0.0017 C   0  0
    5.4428   -9.8695   -0.0110 C   0  0
    6.7327  -10.2014   -0.0055 C   0  0
    3.7001   -8.1106   -0.0037 N   0  3
    2.8766   -8.9494   -0.0179 O   0  0
    3.3463   -6.8343    0.0073 O   0  5
   11.7518  -11.9442    0.0095 C   0  0
   11.1265  -13.1209   -0.0080 C   0  0
   11.8944  -14.3706   -0.0167 C   0  0
   13.2258  -14.3391   -0.0072 C   0  0
   13.9212  -13.0420    0.0120 C   0  0
   13.2216  -11.9071    0.0199 C   0  0
   12.6301   -9.1373    0.0488 O   0  0
   10.3044   -7.3743    0.0513 N   0  0
   11.4454   -6.6821    0.0664 N   0  0
   11.4312   -5.2747    0.0385 C   0  0
   12.5811   -4.6007    0.0395 C   0  0
   12.5776   -3.1330    0.0052 C   0  0
   11.4236   -2.4686   -0.0269 C   0  0
   10.1545   -3.2082   -0.0266 C   0  0
   10.1574   -4.5424    0.0044 C   0  0
   13.0048   -0.1151   -0.3294 O   0  0
   13.9459  -15.5465   -0.0154 O   0  0
   15.3605  -15.3079   -0.0027 C   0  0
    8.1632   -7.0950    0.0387 H   0  0
    5.6909   -6.4586    0.0280 H   0  0
    4.6796  -10.6476   -0.0249 H   0  0
    7.0244  -11.2516   -0.0150 H   0  0
   10.0371  -13.1550   -0.0159 H   0  0
   11.3738  -15.3281   -0.0311 H   0  0
   15.0107  -13.0091    0.0197 H   0  0
   13.7408  -10.9488    0.0341 H   0  0
   12.3801   -7.2020    0.0999 H   0  0
   13.5274   -5.1410    0.0658 H   0  0
   13.5205   -2.5863    0.0060 H   0  0
    9.2089   -2.6665   -0.0517 H   0  0
    9.2146   -5.0893    0.0043 H   0  0
   13.3626   -0.4693   -1.2508 H   0  0
   15.8903  -16.2604   -0.0094 H   0  0
   15.6274  -14.7507    0.8954 H   0  0
   15.6402  -14.7310   -0.8842 H   0  0
  2  1  2  0
  3  2  2  0
  4  5  1  0
  5  6  1  0
  6  7  1  0
  7  8  1  0
  8  4  2  0
  9 10  2  0
 10 11  1  0
 11 12  2  0
 12 13  1  0
 13 14  2  0
 14  9  1  0
  8  9  1  0
 15 16  2  0
 15 17  1  0
 12 15  1  0
 18 19  2  0
 19 20  1  0
 20 21  2  0
 21 22  1  0
 22 23  2  0
 23 18  1  0
  5 18  1  0
  6 24  2  0
  7 25  2  0
 25 26  1  0
 26 27  1  0
 27 28  2  0
 28 29  1  0
 29 30  2  0
 30 31  1  0
 31 32  2  0
 32 27  1  0
 30  2  1  0
  2 33  1  0
 21 34  1  0
 34 35  1  0
 10 36  1  0
 11 37  1  0
 13 38  1  0
 14 39  1  0
 19 40  1  0
 20 41  1  0
 22 42  1  0
 23 43  1  0
 26 44  1  0
 28 45  1  0
 29 46  1  0
 31 47  1  0
 32 48  1  0
 33 49  1  0
 35 50  1  0
 35 51  1  0
 35 52  1  0
M  CHG  2  15   1  17  -1
M  END
> <Name>
Molecule

> <Clean Energy>
24.0466

> <From>
www.bindingDB.org

> <BindingDB Reactant_set_id>
51350370

> <Ligand InChI>
InChI=1S/C22H17N5O7S/c1-34-18-10-8-16(9-11-18)26-22(28)21(20(25-26)14-2-6-17(7-3-14)27(29)30)24-23-15-4-12-19(13-5-15)35(31,32)33/h2-13,23H,1H3,(H,31,32,33)/b24-21-

> <Ligand InChI Key>
RSBYAWQEIFUNLD-FLFQWRMESA-N

> <BindingDB MonomerID>
50546229

> <BindingDB Ligand Name>
CHEMBL4780471

> <Target Name>
Tyrosine-protein phosphatase non-receptor type 1

> <Target Source Organism According to Curator or DataSource>
Homo sapiens

> <IC50 (nM)>
6800

> <Curation/DataSource>
ChEMBL

> <Article DOI>
10.1021/acs.jmedchem.0c00249

> <BindingDB Entry DOI>
10.7270/Q2736VH5

> <PMID>
32460492

> <Authors>
Yuan, X; Bu, H; Zhou, J; Yang, CY; Zhang, H

> <Institution>
China Pharmaceutical University

> <Link to Ligand in BindingDB>
http://www.bindingdb.org/bind/chemsearch/marvin/MolStructure.jsp?monomerid=50546229

> <Link to Ligand-Target Pair in BindingDB>
http://www.bindingdb.org/jsp/dbsearch/PrimarySearch_ki.jsp?energyterm=kJ/mole&tag=pol&polymerid=2622&target=Tyrosine-protein+phosphatase+non-receptor+type+1&column=ki&startPg=0&Increment=50&submit=Sea
rch
http://www.bindingdb.org/jsp/dbsearch/PrimarySearch_ki.jsp?energyterm=kJ/mole&tag=r21&monomerid=50546229&enzyme=Tyrosine-protein+phosphatase+non-receptor+type+1&column=ki&startPg=0&Increment=50&submit
=Search

> <PubChem CID of Ligand>
162663079

> <PubChem SID of Ligand>
461689992

> <Number of Protein Chains in Target (bigger than 1 implies a multichain complex)>
1

> <BindingDB Target Chain Sequence>
MEMEKEFEQIDKSGSWAAIYQDIRHEASDFPCRVAKLPKNKNRNRYRDVSPFDHSRIKLHQEDNDYINASLIKMEEAQRSYILTQGPLPNTCGHFWEMVWEQKSRGVVMLNRVMEKGSLKCAQYWPQKEEKEMIFEDTNLKLTLISEDIKSYYTVRQLELENLTTQETREILHFHYTTWPDFGVPESPASFLNFLFKVRE
SGSLSPEHGPVVVHCSAGIGRSGTFCLADTCLLLMDKRKDPSSVDIKKVLLEMRKFRMGLIQTADQLRFSYLAVIEGAKFIMGDSSVQDQWKELSHEDLEPPPEHIPPPPRPPKRILEPHNGKCREFFPNHQWVKEETQEDKDCPIKEEKGSPLNAAPYGIESMSQDTEVRSRVVGGSLRGAQAASPAKGEPSLPEKDED
HALSYWKPFLVNMCVATVLTAGAYLCYRFLFNSNT

> <PDB ID(s) of Target Chain>
1BZJ,1G7G,1GFY,1JF7,1KAK,1KAV,1LQF,1NL9,1NNY,1NO6,1NZ7,1OEM,1OEO,1OES,1OET,1OEU,1OEV,1ONY,1ONZ,1PH0,1PXH,1PYN,1Q1M,1Q6J,1Q6M,1Q6N,1Q6P,1Q6S,1Q6T,1QXK,1SUG,1T48,1T49,1T4J,1WAX,1XBO,2AZR,2B07,2BGD,2BGE,
2CM2,2CM3,2CM7,2CM8,2CMA,2CMB,2CMC,2CNE,2CNF,2CNG,2CNH,2CNI,2F6T,2F6V,2F6W,2F6Y,2F6Z,2F70,2F71,2FJN,2H4G,2H4K,2HB1,2HNP,2HNQ,2QBP,2QBQ,2QBR,2QBS,2VEU,2VEV,2VEW,2VEX,2VEY,2ZMM,2ZN7,3A5J,3CWE,3D9C,3EAX,
3EB1,3EU0,3I7Z,3I80,3SME,4BJO,4I8N,4QBW,4Y14,5K9V,5K9W,5KA0,5KA1,5T19,6B90,6NTP,6W30,7KEY,7KLX,7LFO,7MN9,7MNA,8DU7,8G65,8G67,8G68,8G69,8G6A,8SKL

> <UniProt (SwissProt) Recommended Name of Target Chain>
Tyrosine-protein phosphatase non-receptor type 1

> <UniProt (SwissProt) Entry Name of Target Chain>
PTN1_HUMAN

> <UniProt (SwissProt) Primary ID of Target Chain>
P18031

> <UniProt (SwissProt) Secondary ID(s) of Target Chain>
Q5TGD8 Q9BQV9 Q9NQQ4

$$$$
Molecule
  SciTegic10242319433D

 63 67  0  0  0  0            999 V2000
   -8.8866  -14.8835   -0.2355 C   0  0
   -8.2906  -13.8539   -0.8300 C   0  0
   -6.9951  -13.4951   -0.1014 C   0  0  1  0  0  0
   -8.0734  -15.2595    0.9455 C   0  0  2  0  0  0
   -7.4774  -13.8491    1.3294 C   0  0
   -6.0981  -14.7206   -0.3941 C   0  0  2  0  0  0
   -6.7592  -15.8255    0.4431 C   0  0  2  0  0  0
   -1.6487  -15.2829   -0.1266 S   0  0
   -1.4598  -12.8383   -0.0319 C   0  0
   -2.4073  -13.7954   -0.1175 C   0  0
   -3.8297  -13.6281   -0.2175 N   0  0
   -4.6027  -14.7291   -0.1355 C   0  0
   -4.0751  -15.8186    0.0893 O   0  0
   -1.8216  -11.3697    0.0093 C   0  0
   -0.8310  -10.3841    0.1528 O   0  0
   -3.0128  -11.0453   -0.0335 O   0  0
   -1.2903   -9.0167    0.1841 C   0  0
   -6.6344  -17.2426   -0.0566 C   0  0
   -7.5338  -18.2113    0.3708 O   0  0
   -5.7137  -17.5531   -0.8209 O   0  0
   -0.0739   -8.1114    0.4917 C   0  0
   -1.8523   -8.5999   -1.1928 C   0  0
    0.0021  -13.5166    0.0026 C   0  0
   -0.0514  -14.8503   -0.0472 C   0  0
    1.3651  -12.8736    0.0346 C   0  0
    2.4459  -13.6654    0.0350 C   0  0
    3.8025  -13.0783    0.0382 C   0  0
    3.9396  -11.7538    0.0352 C   0  0
    2.7702  -10.9140    0.0333 C   0  0
    1.5618  -11.4521    0.0331 C   0  0
    5.2416  -11.1062    0.0291 C   0  0
    6.3703  -11.8130    0.0235 C   0  0
    7.6618  -11.1112    0.0139 C   0  0
    7.6990   -9.7777    0.0099 C   0  0
    6.4578   -9.0108    0.0156 C   0  0
    5.2899   -9.6437    0.0247 C   0  0
    9.2142   -8.9495   -0.0016 Cl  0  0
   -9.8092  -15.3653   -0.5592 H   0  0
   -8.6717  -13.3388   -1.7118 H   0  0
   -6.5742  -12.5034   -0.2673 H   0  0
   -8.5789  -15.8134    1.7366 H   0  0
   -8.2331  -13.1585    1.7037 H   0  0
   -6.6593  -13.9168    2.0465 H   0  0
   -6.2438  -14.9818   -1.4422 H   0  0
   -6.1468  -15.8377    1.3447 H   0  0
   -4.2628  -12.6591   -0.3531 H   0  0
   -2.0529   -8.8946    0.9532 H   0  0
   -8.0218  -18.6276   -0.4605 H   0  0
   -0.3937   -7.0699    0.5212 H   0  0
    0.6795   -8.2377   -0.2858 H   0  0
    0.3506   -8.3880    1.4568 H   0  0
   -2.1935   -7.5657   -1.1486 H   0  0
   -2.6893   -9.2471   -1.4552 H   0  0
   -1.0714   -8.6924   -1.9477 H   0  0
    0.8005  -15.5302   -0.0374 H   0  0
    2.3242  -14.7485    0.0328 H   0  0
    4.6815  -13.7229    0.0430 H   0  0
    2.8811   -9.8296    0.0322 H   0  0
    0.6906  -10.7971    0.0316 H   0  0
    6.3368  -12.9024    0.0261 H   0  0
    8.5908  -11.6813    0.0099 H   0  0
    6.4888   -7.9212    0.0123 H   0  0
    4.3627   -9.0707    0.0290 H   0  0
 15 17  1  0
  1  2  2  0
  2  3  1  0
  8 24  1  0
 18 19  1  0
 18 20  2  0
  7 18  1  0
 23  9  1  0
 17 21  1  0
  9 10  2  0
 17 22  1  0
 23 24  2  0
 10  8  1  0
  1  4  1  0
 10 11  1  0
 23 25  1  0
  4  5  1  0
 25 26  2  0
 11 12  1  0
 26 27  1  0
 12  6  1  0
 27 28  2  0
  5  3  1  0
 28 29  1  0
 12 13  2  0
 29 30  2  0
 30 25  1  0
  3  6  1  0
  9 14  1  0
 31 32  2  0
  6  7  1  0
 32 33  1  0
 14 15  1  0
 33 34  2  0
  7  4  1  0
 34 35  1  0
 14 16  2  0
 35 36  2  0
 36 31  1  0
 28 31  1  0
 34 37  1  0
  1 38  1  0
  2 39  1  0
  3 40  1  0
  4 41  1  0
  5 42  1  0
  5 43  1  0
  6 44  1  0
  7 45  1  0
 11 46  1  0
 17 47  1  0
 19 48  1  0
 21 49  1  0
 21 50  1  0
 21 51  1  0
 22 52  1  0
 22 53  1  0
 22 54  1  0
 24 55  1  0
 26 56  1  0
 27 57  1  0
 29 58  1  0
 30 59  1  0
 32 60  1  0
 33 61  1  0
 35 62  1  0
 36 63  1  0
M  END
> <Name>
Molecule

> <Clean Energy>
98.316

> <From>
www.bindingDB.org

> <BindingDB Reactant_set_id>
50908086

> <Ligand InChI>
InChI=1S/C29H26ClNO5S/c1-15(2)36-29(35)25-22(18-5-3-16(4-6-18)17-9-11-21(30)12-10-17)14-37-27(25)31-26(32)23-19-7-8-20(13-19)24(23)28(33)34/h3-12,14-15,19-20,23-24H,13H2,1-2H3,(H,31,32)(H,33,34)

> <Ligand InChI Key>
OATVBPXSEYWMNJ-UHFFFAOYSA-N

> <BindingDB MonomerID>
50307990

> <BindingDB Ligand Name>
2-[(3-Carboxy-bicyclo[2.2.1]hept-5-ene-2-carbonyl)-amino]-4-(4'-chloro-biphenyl-4-yl)-thiophene-3-carboxylicacid isopropyl ester::CHEMBL603479

> <Target Name>
Tyrosine-protein phosphatase non-receptor type 1

> <Target Source Organism According to Curator or DataSource>
Homo sapiens

> <IC50 (nM)>
6800

> <Curation/DataSource>
ChEMBL

> <Article DOI>
10.1016/j.bmc.2010.01.055

> <BindingDB Entry DOI>
10.7270/Q2X06811

> <PMID>
20153651

> <Authors>
Ye, D; Zhang, Y; Wang, F; Zheng, M; Zhang, X; Luo, X; Shen, X; Jiang, H; Liu, H

> <Institution>
Chinese Academy of Sciences

> <Link to Ligand in BindingDB>
http://www.bindingdb.org/bind/chemsearch/marvin/MolStructure.jsp?monomerid=50307990

> <Link to Ligand-Target Pair in BindingDB>
http://www.bindingdb.org/jsp/dbsearch/PrimarySearch_ki.jsp?energyterm=kJ/mole&tag=pol&polymerid=2622&target=Tyrosine-protein+phosphatase+non-receptor+type+1&column=ki&startPg=0&Increment=50&submit=Sea
rch
http://www.bindingdb.org/jsp/dbsearch/PrimarySearch_ki.jsp?energyterm=kJ/mole&tag=r21&monomerid=50307990&enzyme=Tyrosine-protein+phosphatase+non-receptor+type+1&column=ki&startPg=0&Increment=50&submit
=Search

> <PubChem CID of Ligand>
46228871

> <PubChem SID of Ligand>
104162351

> <ChEMBL ID of Ligand>
CHEMBL603479

> <ZINC ID of Ligand>
ZINC49766886

> <Number of Protein Chains in Target (bigger than 1 implies a multichain complex)>
1

> <BindingDB Target Chain Sequence>
MEMEKEFEQIDKSGSWAAIYQDIRHEASDFPCRVAKLPKNKNRNRYRDVSPFDHSRIKLHQEDNDYINASLIKMEEAQRSYILTQGPLPNTCGHFWEMVWEQKSRGVVMLNRVMEKGSLKCAQYWPQKEEKEMIFEDTNLKLTLISEDIKSYYTVRQLELENLTTQETREILHFHYTTWPDFGVPESPASFLNFLFKVRE
SGSLSPEHGPVVVHCSAGIGRSGTFCLADTCLLLMDKRKDPSSVDIKKVLLEMRKFRMGLIQTADQLRFSYLAVIEGAKFIMGDSSVQDQWKELSHEDLEPPPEHIPPPPRPPKRILEPHNGKCREFFPNHQWVKEETQEDKDCPIKEEKGSPLNAAPYGIESMSQDTEVRSRVVGGSLRGAQAASPAKGEPSLPEKDED
HALSYWKPFLVNMCVATVLTAGAYLCYRFLFNSNT

> <PDB ID(s) of Target Chain>
1BZJ,1G7G,1GFY,1JF7,1KAK,1KAV,1LQF,1NL9,1NNY,1NO6,1NZ7,1OEM,1OEO,1OES,1OET,1OEU,1OEV,1ONY,1ONZ,1PH0,1PXH,1PYN,1Q1M,1Q6J,1Q6M,1Q6N,1Q6P,1Q6S,1Q6T,1QXK,1SUG,1T48,1T49,1T4J,1WAX,1XBO,2AZR,2B07,2BGD,2BGE,
2CM2,2CM3,2CM7,2CM8,2CMA,2CMB,2CMC,2CNE,2CNF,2CNG,2CNH,2CNI,2F6T,2F6V,2F6W,2F6Y,2F6Z,2F70,2F71,2FJN,2H4G,2H4K,2HB1,2HNP,2HNQ,2QBP,2QBQ,2QBR,2QBS,2VEU,2VEV,2VEW,2VEX,2VEY,2ZMM,2ZN7,3A5J,3CWE,3D9C,3EAX,
3EB1,3EU0,3I7Z,3I80,3SME,4BJO,4I8N,4QBW,4Y14,5K9V,5K9W,5KA0,5KA1,5T19,6B90,6NTP,6W30,7KEY,7KLX,7LFO,7MN9,7MNA,8DU7,8G65,8G67,8G68,8G69,8G6A,8SKL

> <UniProt (SwissProt) Recommended Name of Target Chain>
Tyrosine-protein phosphatase non-receptor type 1

> <UniProt (SwissProt) Entry Name of Target Chain>
PTN1_HUMAN

> <UniProt (SwissProt) Primary ID of Target Chain>
P18031

> <UniProt (SwissProt) Secondary ID(s) of Target Chain>
Q5TGD8 Q9BQV9 Q9NQQ4

$$$$
Molecule
  SciTegic10242319433D

 64 67  0  0  0  0            999 V2000
    1.5128   -0.1334   -0.0002 C   0  0
    1.3947    1.1922   -0.0003 C   0  0
    0.0805    1.8203    0.0000 C   0  0
   -1.0082    1.0469    0.0004 C   0  0
   -0.8696   -0.4311    0.0004 C   0  0
    0.3376   -1.0067    0.0001 C   0  0
    0.4081   -2.5342    0.0002 C   0  0
    1.4600   -3.3852    0.0001 C   0  0
    2.9099   -3.0562   -0.0001 C   0  0
    3.6449   -4.2174   -0.0002 N   0  0
    2.7484   -5.3103   -0.0001 C   0  0
    1.4121   -4.8561    0.0001 N   0  0
    3.4278   -1.9410   -0.0002 O   0  0
    3.0542   -6.5058   -0.0001 O   0  0
    5.1213   -4.1955   -0.0005 C   0  0
    5.8975   -5.5064    0.0000 C   0  0
    5.3408   -6.6062    0.0009 O   0  0
    7.2914   -5.4508   -0.0005 O   0  0
    7.8342   -6.7734    0.0001 C   0  0
    0.3079   -5.8945    0.0003 C   0  0
   -1.2324   -5.6946    0.0000 C   0  0
   -1.9739   -6.8048    0.0000 C   0  0
   -3.4372   -6.7369   -0.0002 C   0  0
   -4.0465   -5.5554   -0.0005 C   0  0
   -3.2484   -4.3355   -0.0006 C   0  0
   -1.9187   -4.4074   -0.0004 C   0  0
    0.0021    3.2385    0.0000 O   0  0
   -1.3488    3.7316    0.0003 C   0  0
   -1.3372    5.2503    0.0003 C   0  0
   -2.4867    5.9253    0.0006 C   0  0
   -2.4812    7.3948    0.0007 C   0  0
   -1.3272    8.0605    0.0005 C   0  0
   -0.0584    7.3209    0.0002 C   0  0
   -0.0624    5.9859    0.0001 C   0  0
   -1.3322    9.5296    0.0006 C   0  0
   -0.1300   10.2367    0.0004 O   0  0
   -2.4076   10.1402    0.0008 O   0  0
   -0.3975   11.6449    0.0005 C   0  0
    2.5074   -0.5792   -0.0004 H   0  0
    2.2900    1.8139   -0.0005 H   0  0
   -1.9991    1.5011    0.0006 H   0  0
   -1.7632   -1.0553    0.0007 H   0  0
   -0.5645   -3.0262    0.0004 H   0  0
    5.4286   -3.6471   -0.8909 H   0  0
    5.4289   -3.6462    0.8894 H   0  0
    8.9228   -6.7200   -0.0003 H   0  0
    7.4967   -7.3056   -0.8893 H   0  0
    7.4974   -7.3045    0.8904 H   0  0
    0.5016   -6.4933   -0.8896 H   0  0
    0.5014   -6.4927    0.8906 H   0  0
   -1.4825   -7.7777    0.0003 H   0  0
   -4.0258   -7.6543   -0.0002 H   0  0
   -5.1350   -5.4992   -0.0007 H   0  0
   -3.7409   -3.3631   -0.0009 H   0  0
   -1.3328   -3.4882   -0.0004 H   0  0
   -1.8659    3.3730   -0.8898 H   0  0
   -1.8655    3.3729    0.8905 H   0  0
   -3.4336    5.3855    0.0008 H   0  0
   -3.4240    7.9417    0.0009 H   0  0
    0.8875    7.8625    0.0000 H   0  0
    0.8807    5.4393   -0.0001 H   0  0
    0.5440   12.1941    0.0004 H   0  0
   -0.9699   11.9065    0.8905 H   0  0
   -0.9702   11.9066   -0.8892 H   0  0
  1  2  2  0
  2  3  1  0
  3  4  2  0
  4  5  1  0
  5  6  2  0
  6  1  1  0
  6  7  1  0
  7  8  2  0
  8  9  1  0
  9 10  1  0
 10 11  1  0
 11 12  1  0
 12  8  1  0
  9 13  2  0
 11 14  2  0
 10 15  1  0
 15 16  1  0
 16 17  2  0
 16 18  1  0
 18 19  1  0
 12 20  1  0
 20 21  1  0
 21 22  2  0
 22 23  1  0
 23 24  2  0
 24 25  1  0
 25 26  2  0
 26 21  1  0
  3 27  1  0
 27 28  1  0
 28 29  1  0
 29 30  2  0
 30 31  1  0
 31 32  2  0
 32 33  1  0
 33 34  2  0
 34 29  1  0
 32 35  1  0
 35 36  1  0
 35 37  2  0
 36 38  1  0
  1 39  1  0
  2 40  1  0
  4 41  1  0
  5 42  1  0
  7 43  1  0
 15 44  1  0
 15 45  1  0
 19 46  1  0
 19 47  1  0
 19 48  1  0
 20 49  1  0
 20 50  1  0
 22 51  1  0
 23 52  1  0
 24 53  1  0
 25 54  1  0
 26 55  1  0
 28 56  1  0
 28 57  1  0
 30 58  1  0
 31 59  1  0
 33 60  1  0
 34 61  1  0
 38 62  1  0
 38 63  1  0
 38 64  1  0
M  END
> <Name>
Molecule

> <Clean Energy>
44.152

> <From>
www.bindingDB.org

> <BindingDB Reactant_set_id>
50427884

> <Ligand InChI>
InChI=1S/C29H26N2O7/c1-36-26(32)18-31-27(33)25(30(29(31)35)17-21-6-4-3-5-7-21)16-20-10-14-24(15-11-20)38-19-22-8-12-23(13-9-22)28(34)37-2/h3-16H,17-19H2,1-2H3/b25-16+

> <Ligand InChI Key>
BPTKHXBWFFILDQ-PCLIKHOPSA-N

> <BindingDB MonomerID>
50127116

> <BindingDB Ligand Name>
CHEMBL3628481

> <Target Name>
Tyrosine-protein phosphatase non-receptor type 1

> <Target Source Organism According to Curator or DataSource>
Homo sapiens

> <IC50 (nM)>
6800

> <Curation/DataSource>
ChEMBL

> <Article DOI>
10.1016/j.ejmech.2015.08.037

> <BindingDB Entry DOI>
10.7270/Q2PK0HZF

> <PMID>
26342135

> <Authors>
Wang, MY; Jin, YY; Wei, HY; Zhang, LS; Sun, SX; Chen, XB; Dong, WL; Xu, WR; Cheng, XC; Wang, RL

> <Institution>
Tianjin Medical University

> <Link to Ligand in BindingDB>
http://www.bindingdb.org/bind/chemsearch/marvin/MolStructure.jsp?monomerid=50127116

> <Link to Ligand-Target Pair in BindingDB>
http://www.bindingdb.org/jsp/dbsearch/PrimarySearch_ki.jsp?energyterm=kJ/mole&tag=pol&polymerid=2622&target=Tyrosine-protein+phosphatase+non-receptor+type+1&column=ki&startPg=0&Increment=50&submit=Sea
rch
http://www.bindingdb.org/jsp/dbsearch/PrimarySearch_ki.jsp?energyterm=kJ/mole&tag=r21&monomerid=50127116&enzyme=Tyrosine-protein+phosphatase+non-receptor+type+1&column=ki&startPg=0&Increment=50&submit
=Search

> <PubChem CID of Ligand>
122193484

> <PubChem SID of Ligand>
321902512

> <ChEMBL ID of Ligand>
CHEMBL3628481

> <Number of Protein Chains in Target (bigger than 1 implies a multichain complex)>
1

> <BindingDB Target Chain Sequence>
MEMEKEFEQIDKSGSWAAIYQDIRHEASDFPCRVAKLPKNKNRNRYRDVSPFDHSRIKLHQEDNDYINASLIKMEEAQRSYILTQGPLPNTCGHFWEMVWEQKSRGVVMLNRVMEKGSLKCAQYWPQKEEKEMIFEDTNLKLTLISEDIKSYYTVRQLELENLTTQETREILHFHYTTWPDFGVPESPASFLNFLFKVRE
SGSLSPEHGPVVVHCSAGIGRSGTFCLADTCLLLMDKRKDPSSVDIKKVLLEMRKFRMGLIQTADQLRFSYLAVIEGAKFIMGDSSVQDQWKELSHEDLEPPPEHIPPPPRPPKRILEPHNGKCREFFPNHQWVKEETQEDKDCPIKEEKGSPLNAAPYGIESMSQDTEVRSRVVGGSLRGAQAASPAKGEPSLPEKDED
HALSYWKPFLVNMCVATVLTAGAYLCYRFLFNSNT

> <PDB ID(s) of Target Chain>
1BZJ,1G7G,1GFY,1JF7,1KAK,1KAV,1LQF,1NL9,1NNY,1NO6,1NZ7,1OEM,1OEO,1OES,1OET,1OEU,1OEV,1ONY,1ONZ,1PH0,1PXH,1PYN,1Q1M,1Q6J,1Q6M,1Q6N,1Q6P,1Q6S,1Q6T,1QXK,1SUG,1T48,1T49,1T4J,1WAX,1XBO,2AZR,2B07,2BGD,2BGE,
2CM2,2CM3,2CM7,2CM8,2CMA,2CMB,2CMC,2CNE,2CNF,2CNG,2CNH,2CNI,2F6T,2F6V,2F6W,2F6Y,2F6Z,2F70,2F71,2FJN,2H4G,2H4K,2HB1,2HNP,2HNQ,2QBP,2QBQ,2QBR,2QBS,2VEU,2VEV,2VEW,2VEX,2VEY,2ZMM,2ZN7,3A5J,3CWE,3D9C,3EAX,
3EB1,3EU0,3I7Z,3I80,3SME,4BJO,4I8N,4QBW,4Y14,5K9V,5K9W,5KA0,5KA1,5T19,6B90,6NTP,6W30,7KEY,7KLX,7LFO,7MN9,7MNA,8DU7,8G65,8G67,8G68,8G69,8G6A,8SKL

> <UniProt (SwissProt) Recommended Name of Target Chain>
Tyrosine-protein phosphatase non-receptor type 1

> <UniProt (SwissProt) Entry Name of Target Chain>
PTN1_HUMAN

> <UniProt (SwissProt) Primary ID of Target Chain>
P18031

> <UniProt (SwissProt) Secondary ID(s) of Target Chain>
Q5TGD8 Q9BQV9 Q9NQQ4

$$$$
Molecule
  SciTegic10242319433D

 62 63  0  0  0  0            999 V2000
   -2.3460    0.5224    1.4471 C   0  0
   -1.8808   -1.0313    1.7668 C   0  0
   -1.3764   -1.4905    0.4577 C   0  0  1  0  0  0
   -1.5532    1.3031    0.2145 C   0  0
   -0.1074    0.9337    0.3915 C   0  0  1  0  0  0
   -0.0381   -0.6611    0.0335 C   0  0  1  0  0  0
    1.2708   -1.1263    0.7067 C   0  0
    2.5271   -0.4562    0.0633 C   0  0
    2.3700    1.0460   -0.1352 C   0  0
    1.0089    1.6629   -0.4634 C   0  0  2  0  0  0
    0.2187    1.3146    1.9137 C   0  0
   -1.0689   -3.0020    0.3924 C   0  0
   -2.4750   -1.2439   -0.5166 N   0  0
    3.4659    1.7938   -0.2356 C   0  0
    1.1393    3.2406   -0.2549 C   0  0
   -0.1077    4.0824   -0.6471 C   0  0
    0.0752    5.5537   -0.2402 C   0  0  1  0  0  0
   -1.2185    6.3179   -0.5748 C   0  0
    0.3267    5.6394    1.2789 C   0  0
    0.0147   -0.8721   -1.0439 H   0  0
   -1.0964    7.6890   -0.1783 N   0  0
   -3.8011   -1.8020   -0.4317 C   0  0
   -4.2270   -2.5363    0.6855 N   0  0
   -4.6167   -1.5427   -1.3234 O   0  0
   -2.2457    8.4715   -0.0381 C   0  0
   -2.1505    9.6571    0.2981 O   0  0
   -3.5051    7.9049   -0.2498 N   0  0
   -3.4068    0.5040    1.1971 H   0  0
   -2.1965    1.1049    2.3562 H   0  0
   -1.0962   -1.0595    2.5228 H   0  0
   -2.7261   -1.6352    2.0968 H   0  0
   -1.9203    0.9630   -0.7538 H   0  0
   -1.6862    2.3819    0.2955 H   0  0
    1.2351   -0.8650    1.7644 H   0  0
    1.3558   -2.2079    0.6017 H   0  0
    3.3844   -0.6321    0.7130 H   0  0
    2.7061   -0.9171   -0.9081 H   0  0
    0.8005    1.4783   -1.5173 H   0  0
    1.2597    1.0774    2.1331 H   0  0
   -0.4310    0.7452    2.5784 H   0  0
    0.0495    2.3806    2.0663 H   0  0
   -0.7035   -3.2563   -0.6025 H   0  0
   -1.9772   -3.5674    0.6007 H   0  0
   -0.3086   -3.2509    1.1327 H   0  0
   -2.2632   -0.6013   -1.3456 H   0  0
    4.4501    1.3292   -0.1755 H   0  0
    3.3794    2.8710   -0.3780 H   0  0
    1.3464    3.4221    0.7997 H   0  0
    1.9795    3.5886   -0.8558 H   0  0
   -0.2518    4.0257   -1.7261 H   0  0
   -0.9847    3.6784   -0.1413 H   0  0
    0.9153    5.9884   -0.7819 H   0  0
   -1.3991    6.2679   -1.6486 H   0  0
   -2.0540    5.8620   -0.0437 H   0  0
    0.4565    6.6823    1.5679 H   0  0
    1.2267    5.0784    1.5309 H   0  0
   -0.5250    5.2182    1.8130 H   0  0
   -0.1313    8.1113    0.0094 H   0  0
   -3.5601   -2.6957    1.5069 H   0  0
   -5.2187   -2.9369    0.7160 H   0  0
   -3.5890    6.8727   -0.5189 H   0  0
   -4.3858    8.5031   -0.1427 H   0  0
  1  2  1  0
  1  4  1  0
  2  3  1  0
  3  6  1  0
  5  4  1  0
  5  6  1  0
  5 10  1  0
  6  7  1  0
  7  8  1  0
  8  9  1  0
  9 10  1  0
  5 11  1  0
  3 12  1  0
  3 13  1  0
  9 14  2  0
 10 15  1  0
 15 16  1  0
 16 17  1  0
 17 18  1  0
 17 19  1  0
  6 20  1  0
 18 21  1  0
 13 22  1  0
 22 23  1  0
 22 24  2  0
 21 25  1  0
 25 26  2  0
 25 27  1  0
  1 28  1  0
  1 29  1  0
  2 30  1  0
  2 31  1  0
  4 32  1  0
  4 33  1  0
  7 34  1  0
  7 35  1  0
  8 36  1  0
  8 37  1  0
 10 38  1  0
 11 39  1  0
 11 40  1  0
 11 41  1  0
 12 42  1  0
 12 43  1  0
 12 44  1  0
 13 45  1  0
 14 46  1  0
 14 47  1  0
 15 48  1  0
 15 49  1  0
 16 50  1  0
 16 51  1  0
 17 52  1  0
 18 53  1  0
 18 54  1  0
 19 55  1  0
 19 56  1  0
 19 57  1  0
 21 58  1  0
 23 59  1  0
 23 60  1  0
 27 61  1  0
 27 62  1  0
M  END
> <Name>
Molecule

> <Clean Energy>
74.7826

> <From>
www.bindingDB.org

> <BindingDB Reactant_set_id>
50481406

> <Ligand InChI>
InChI=1S/C20H36N4O2/c1-13(12-23-17(21)25)6-8-15-14(2)7-9-16-19(15,3)10-5-11-20(16,4)24-18(22)26/h13,15-16H,2,5-12H2,1,3-4H3,(H3,21,23,25)(H3,22,24,26)/t13-,15-,16+,19+,20-/m0/s1

> <Ligand InChI Key>
HIGGQZFLALXLKW-BWCMQUJESA-N

> <BindingDB MonomerID>
50155760

> <BindingDB Ligand Name>
CHEMBL3780639

> <Target Name>
Tyrosine-protein phosphatase non-receptor type 1

> <Target Source Organism According to Curator or DataSource>
Homo sapiens

> <IC50 (nM)>
6800

> <Curation/DataSource>
ChEMBL

> <Article DOI>
10.1016/j.bmcl.2016.03.003

> <BindingDB Entry DOI>
10.7270/Q2514147

> <PMID>
26965864

> <Authors>
Khan, MF; Azad, CS; Kumar, A; Saini, M; Narula, AK; Jain, S

> <Institution>
University of Lucknow

> <Link to Ligand in BindingDB>
http://www.bindingdb.org/bind/chemsearch/marvin/MolStructure.jsp?monomerid=50155760

> <Link to Ligand-Target Pair in BindingDB>
http://www.bindingdb.org/jsp/dbsearch/PrimarySearch_ki.jsp?energyterm=kJ/mole&tag=pol&polymerid=2622&target=Tyrosine-protein+phosphatase+non-receptor+type+1&column=ki&startPg=0&Increment=50&submit=Sea
rch
http://www.bindingdb.org/jsp/dbsearch/PrimarySearch_ki.jsp?energyterm=kJ/mole&tag=r21&monomerid=50155760&enzyme=Tyrosine-protein+phosphatase+non-receptor+type+1&column=ki&startPg=0&Increment=50&submit
=Search

> <PubChem CID of Ligand>
127030488

> <PubChem SID of Ligand>
340133656

> <ChEMBL ID of Ligand>
CHEMBL3780639

> <Number of Protein Chains in Target (bigger than 1 implies a multichain complex)>
1

> <BindingDB Target Chain Sequence>
MEMEKEFEQIDKSGSWAAIYQDIRHEASDFPCRVAKLPKNKNRNRYRDVSPFDHSRIKLHQEDNDYINASLIKMEEAQRSYILTQGPLPNTCGHFWEMVWEQKSRGVVMLNRVMEKGSLKCAQYWPQKEEKEMIFEDTNLKLTLISEDIKSYYTVRQLELENLTTQETREILHFHYTTWPDFGVPESPASFLNFLFKVRE
SGSLSPEHGPVVVHCSAGIGRSGTFCLADTCLLLMDKRKDPSSVDIKKVLLEMRKFRMGLIQTADQLRFSYLAVIEGAKFIMGDSSVQDQWKELSHEDLEPPPEHIPPPPRPPKRILEPHNGKCREFFPNHQWVKEETQEDKDCPIKEEKGSPLNAAPYGIESMSQDTEVRSRVVGGSLRGAQAASPAKGEPSLPEKDED
HALSYWKPFLVNMCVATVLTAGAYLCYRFLFNSNT

> <PDB ID(s) of Target Chain>
1BZJ,1G7G,1GFY,1JF7,1KAK,1KAV,1LQF,1NL9,1NNY,1NO6,1NZ7,1OEM,1OEO,1OES,1OET,1OEU,1OEV,1ONY,1ONZ,1PH0,1PXH,1PYN,1Q1M,1Q6J,1Q6M,1Q6N,1Q6P,1Q6S,1Q6T,1QXK,1SUG,1T48,1T49,1T4J,1WAX,1XBO,2AZR,2B07,2BGD,2BGE,
2CM2,2CM3,2CM7,2CM8,2CMA,2CMB,2CMC,2CNE,2CNF,2CNG,2CNH,2CNI,2F6T,2F6V,2F6W,2F6Y,2F6Z,2F70,2F71,2FJN,2H4G,2H4K,2HB1,2HNP,2HNQ,2QBP,2QBQ,2QBR,2QBS,2VEU,2VEV,2VEW,2VEX,2VEY,2ZMM,2ZN7,3A5J,3CWE,3D9C,3EAX,
3EB1,3EU0,3I7Z,3I80,3SME,4BJO,4I8N,4QBW,4Y14,5K9V,5K9W,5KA0,5KA1,5T19,6B90,6NTP,6W30,7KEY,7KLX,7LFO,7MN9,7MNA,8DU7,8G65,8G67,8G68,8G69,8G6A,8SKL

> <UniProt (SwissProt) Recommended Name of Target Chain>
Tyrosine-protein phosphatase non-receptor type 1

> <UniProt (SwissProt) Entry Name of Target Chain>
PTN1_HUMAN

> <UniProt (SwissProt) Primary ID of Target Chain>
P18031

> <UniProt (SwissProt) Secondary ID(s) of Target Chain>
Q5TGD8 Q9BQV9 Q9NQQ4

$$$$
Molecule
  SciTegic10242319433D

 48 50  0  0  0  0            999 V2000
    4.3743   -6.7797   -0.0637 C   0  0
    5.5134   -7.6655   -0.0279 C   0  0
    6.7127   -7.0922   -0.0578 C   0  0
    4.6186   -5.5850   -0.1972 O   0  0
    2.9799   -7.3474   -0.0048 C   0  0
    1.7879   -6.6692    0.0669 C   0  0
    0.5443   -7.4769    0.0713 C   0  0
    0.5557   -8.8039    0.0235 C   0  0
    1.8083   -9.5076   -0.0352 C   0  0
    2.9468   -8.8254   -0.0481 C   0  0
    1.5301   -5.2083    0.1392 N   0  0
    2.4883   -4.2041    0.5970 C   0  0
    2.2801   -2.8261   -0.0516 C   0  0
    0.8394   -2.3848    0.1534 C   0  0
   -0.0368   -3.3939   -0.5820 C   0  0
    0.1322   -4.7996    0.0350 C   0  0
    8.0050   -7.8046   -0.0312 C   0  0
    8.1198   -9.1429   -0.0097 C   0  0
    9.4658   -9.7452    0.0141 C   0  0
   10.5525   -8.9759    0.0142 C   0  0
   10.4185   -7.5279   -0.0080 C   0  0
    9.2116   -6.9750   -0.0303 C   0  0
    6.9879   -9.9805   -0.0106 O   0  0
    7.3607  -11.3649    0.0122 C   0  0
   11.8149   -9.5546    0.0353 O   0  0
   11.9657   -6.4246   -0.0055 Br  0  0
    5.3964   -8.7481    0.0211 H   0  0
    6.7442   -6.0037   -0.1060 H   0  0
   -0.4153   -6.9619    0.1154 H   0  0
   -0.3826   -9.3586    0.0288 H   0  0
    1.8228  -10.5970   -0.0689 H   0  0
    3.8885   -9.3726   -0.0921 H   0  0
    2.3876   -4.0969    1.6771 H   0  0
    3.4936   -4.5508    0.3579 H   0  0
    2.9515   -2.1018    0.4097 H   0  0
    2.4924   -2.8907   -1.1188 H   0  0
    0.5957   -2.3797    1.2158 H   0  0
    0.6900   -1.3869   -0.2590 H   0  0
   -1.0804   -3.0894   -0.5023 H   0  0
    0.2540   -3.4248   -1.6320 H   0  0
   -0.3047   -4.7961    1.0336 H   0  0
   -0.3952   -5.5198   -0.5904 H   0  0
    9.5719  -10.8299    0.0317 H   0  0
    9.1177   -5.8892   -0.0480 H   0  0
    6.4633  -11.9835    0.0109 H   0  0
    7.9417  -11.5704    0.9113 H   0  0
    7.9610  -11.5946   -0.8682 H   0  0
   11.9185  -10.1382    0.9020 H   0  0
  1  2  1  0
  2  3  2  0
  1  4  2  0
  5  6  2  0
  6  7  1  0
  7  8  2  0
  8  9  1  0
  9 10  2  0
  5 10  1  0
 11 12  1  0
 12 13  1  0
 13 14  1  0
 14 15  1  0
 15 16  1  0
 11 16  1  0
  6 11  1  0
  1  5  1  0
 17 18  2  0
 18 19  1  0
 19 20  2  0
 20 21  1  0
 21 22  2  0
 17 22  1  0
 23 24  1  0
 18 23  1  0
 20 25  1  0
 21 26  1  0
  3 17  1  0
  2 27  1  0
  3 28  1  0
  7 29  1  0
  8 30  1  0
  9 31  1  0
 10 32  1  0
 12 33  1  0
 12 34  1  0
 13 35  1  0
 13 36  1  0
 14 37  1  0
 14 38  1  0
 15 39  1  0
 15 40  1  0
 16 41  1  0
 16 42  1  0
 19 43  1  0
 22 44  1  0
 24 45  1  0
 24 46  1  0
 24 47  1  0
 25 48  1  0
M  END
> <Name>
Molecule

> <Clean Energy>
19.4473

> <From>
www.bindingDB.org

> <BindingDB Reactant_set_id>
50641698

> <Ligand InChI>
InChI=1S/C21H22BrNO3/c1-26-21-14-20(25)17(22)13-15(21)9-10-19(24)16-7-3-4-8-18(16)23-11-5-2-6-12-23/h3-4,7-10,13-14,25H,2,5-6,11-12H2,1H3/b10-9+

> <Ligand InChI Key>
HZFZYKFSHCIFLF-MDZDMXLPSA-N

> <BindingDB MonomerID>
50344596

> <BindingDB Ligand Name>
(E)-3-(5-Bromo-4-hydroxy-2-methoxyphenyl)-1-(2-(piperidin-1-yl)phenyl)prop-2-en-1-one::CHEMBL1778923

> <Target Name>
Tyrosine-protein phosphatase non-receptor type 1

> <Target Source Organism According to Curator or DataSource>
Homo sapiens

> <IC50 (nM)>
6800

> <Curation/DataSource>
ChEMBL

> <Article DOI>
10.1016/j.bmcl.2011.04.057

> <BindingDB Entry DOI>
10.7270/Q23J3D96

> <PMID>
21555221

> <Authors>
Liu, Z; Lee, W; Kim, SN; Yoon, G; Cheon, SH

> <Institution>
Chonnam National University

> <Link to Ligand in BindingDB>
http://www.bindingdb.org/bind/chemsearch/marvin/MolStructure.jsp?monomerid=50344596

> <Link to Ligand-Target Pair in BindingDB>
http://www.bindingdb.org/jsp/dbsearch/PrimarySearch_ki.jsp?energyterm=kJ/mole&tag=pol&polymerid=2622&target=Tyrosine-protein+phosphatase+non-receptor+type+1&column=ki&startPg=0&Increment=50&submit=Sea
rch
http://www.bindingdb.org/jsp/dbsearch/PrimarySearch_ki.jsp?energyterm=kJ/mole&tag=r21&monomerid=50344596&enzyme=Tyrosine-protein+phosphatase+non-receptor+type+1&column=ki&startPg=0&Increment=50&submit
=Search

> <PubChem CID of Ligand>
54585720

> <PubChem SID of Ligand>
131347532

> <ChEMBL ID of Ligand>
CHEMBL1778923

> <ZINC ID of Ligand>
ZINC71334656

> <Number of Protein Chains in Target (bigger than 1 implies a multichain complex)>
1

> <BindingDB Target Chain Sequence>
MEMEKEFEQIDKSGSWAAIYQDIRHEASDFPCRVAKLPKNKNRNRYRDVSPFDHSRIKLHQEDNDYINASLIKMEEAQRSYILTQGPLPNTCGHFWEMVWEQKSRGVVMLNRVMEKGSLKCAQYWPQKEEKEMIFEDTNLKLTLISEDIKSYYTVRQLELENLTTQETREILHFHYTTWPDFGVPESPASFLNFLFKVRE
SGSLSPEHGPVVVHCSAGIGRSGTFCLADTCLLLMDKRKDPSSVDIKKVLLEMRKFRMGLIQTADQLRFSYLAVIEGAKFIMGDSSVQDQWKELSHEDLEPPPEHIPPPPRPPKRILEPHNGKCREFFPNHQWVKEETQEDKDCPIKEEKGSPLNAAPYGIESMSQDTEVRSRVVGGSLRGAQAASPAKGEPSLPEKDED
HALSYWKPFLVNMCVATVLTAGAYLCYRFLFNSNT

> <PDB ID(s) of Target Chain>
1BZJ,1G7G,1GFY,1JF7,1KAK,1KAV,1LQF,1NL9,1NNY,1NO6,1NZ7,1OEM,1OEO,1OES,1OET,1OEU,1OEV,1ONY,1ONZ,1PH0,1PXH,1PYN,1Q1M,1Q6J,1Q6M,1Q6N,1Q6P,1Q6S,1Q6T,1QXK,1SUG,1T48,1T49,1T4J,1WAX,1XBO,2AZR,2B07,2BGD,2BGE,
2CM2,2CM3,2CM7,2CM8,2CMA,2CMB,2CMC,2CNE,2CNF,2CNG,2CNH,2CNI,2F6T,2F6V,2F6W,2F6Y,2F6Z,2F70,2F71,2FJN,2H4G,2H4K,2HB1,2HNP,2HNQ,2QBP,2QBQ,2QBR,2QBS,2VEU,2VEV,2VEW,2VEX,2VEY,2ZMM,2ZN7,3A5J,3CWE,3D9C,3EAX,
3EB1,3EU0,3I7Z,3I80,3SME,4BJO,4I8N,4QBW,4Y14,5K9V,5K9W,5KA0,5KA1,5T19,6B90,6NTP,6W30,7KEY,7KLX,7LFO,7MN9,7MNA,8DU7,8G65,8G67,8G68,8G69,8G6A,8SKL

> <UniProt (SwissProt) Recommended Name of Target Chain>
Tyrosine-protein phosphatase non-receptor type 1

> <UniProt (SwissProt) Entry Name of Target Chain>
PTN1_HUMAN

> <UniProt (SwissProt) Primary ID of Target Chain>
P18031

> <UniProt (SwissProt) Secondary ID(s) of Target Chain>
Q5TGD8 Q9BQV9 Q9NQQ4

$$$$
Molecule
  SciTegic10242319433D

 80 84  0  0  0  0            999 V2000
    5.8542   -7.3734    1.8641 C   0  0
    6.2021   -7.3169    0.3585 C   0  0  1  0  0  0
    6.3409   -8.7812   -0.1336 C   0  0
    5.0680   -5.1383    0.0843 C   0  0
    5.0973   -6.5691   -0.4048 C   0  0  2  0  0  0
    6.3909   -4.4683   -0.3773 C   0  0
    7.6258   -5.3138   -0.0847 C   0  0
    7.5308   -6.6210    0.2423 C   0  0
    8.7476   -7.4397    0.5608 C   0  0
   10.0212   -6.9009   -0.0622 C   0  0  1  0  0  0
    8.9501   -4.6535   -0.1535 C   0  0
   10.1746   -5.4068    0.3317 C   0  0  2  0  0  0
   10.3668   -2.5904   -0.6383 C   0  0
    9.0301   -3.3661   -0.5452 C   0  0
   11.5393   -3.2490    0.1573 C   0  0  1  0  0  0
   11.5335   -4.7469   -0.1605 C   0  0  1  0  0  0
   12.7085   -5.3745    0.7068 C   0  0
   14.0765   -4.7888    0.3339 C   0  0
   12.9787   -2.5662   -0.2696 C   0  0  2  0  0  0
   14.2005   -3.2138    0.3908 C   0  0  1  0  0  0
   15.3340   -2.0413    0.0175 C   0  0  1  0  0  0
   14.5643   -0.6988    0.1933 C   0  0
   13.1059   -1.1212    0.3334 C   0  0  1  0  0  0
   16.8051   -1.8616    0.7068 C   0  0
   17.8904   -2.9680    0.6448 C   0  0
   17.4513   -0.6028    0.0945 C   0  0
   14.9975   -4.0338   -0.7430 C   0  0
   16.1061   -4.8598   -0.2589 O   0  0
   11.2978   -3.0892    1.7108 C   0  0
   11.7212   -4.9576   -1.7068 C   0  0
   11.0919   -7.7248    0.4004 O   0  0
    3.8460   -7.2146   -0.1595 O   0  0
   12.1802   -0.1405   -0.1444 O   0  0
    5.1114   -9.4853    0.0310 O   0  0
    5.7474   -6.3601    2.2512 H   0  0
    6.6517   -7.8854    2.4028 H   0  0
    4.9181   -7.9147    2.0012 H   0  0
    6.6141   -8.7799   -1.1888 H   0  0
    7.1194   -9.2805    0.4432 H   0  0
    4.9984   -5.1168    1.1718 H   0  0
    4.2143   -4.6142   -0.3454 H   0  0
    5.3147   -6.5863   -1.4728 H   0  0
    6.3354   -4.2964   -1.4523 H   0  0
    6.4943   -3.5138    0.1388 H   0  0
    8.8754   -7.4605    1.6431 H   0  0
    8.5866   -8.4534    0.1939 H   0  0
    9.9509   -6.9802   -1.1470 H   0  0
   10.1703   -5.3595    1.4206 H   0  0
   10.2082   -1.5858   -0.2463 H   0  0
   10.6558   -2.5301   -1.6876 H   0  0
    8.1092   -2.8461   -0.8092 H   0  0
   12.5148   -5.1718    1.7602 H   0  0
   12.7305   -6.4517    0.5417 H   0  0
   14.8146   -5.2054    1.0194 H   0  0
   14.3067   -5.1038   -0.6839 H   0  0
   13.0906   -2.5446   -1.3536 H   0  0
   15.5185   -2.1384   -1.0523 H   0  0
   14.9023   -0.1734    1.0865 H   0  0
   14.6995   -0.0585   -0.6784 H   0  0
   12.9192   -1.2203    1.4027 H   0  0
   16.6344   -1.6465    1.7617 H   0  0
   18.7844   -2.6303    1.1689 H   0  0
   18.1373   -3.1775   -0.3960 H   0  0
   17.5131   -3.8746    1.1180 H   0  0
   18.4378   -0.4508    0.5323 H   0  0
   16.8250    0.2650    0.3013 H   0  0
   17.5487   -0.7316   -0.9835 H   0  0
   14.2862   -4.6879   -1.2473 H   0  0
   15.4004   -3.3153   -1.4568 H   0  0
   16.8146   -4.2501    0.2195 H   0  0
   10.3444   -3.5441    1.9795 H   0  0
   11.2802   -2.0304    1.9693 H   0  0
   12.1019   -3.5828    2.2567 H   0  0
   10.8849   -4.5053   -2.2398 H   0  0
   11.7573   -6.0245   -1.9269 H   0  0
   12.6517   -4.4891   -2.0275 H   0  0
   11.1427   -7.6781    1.4482 H   0  0
    3.8941   -8.2099   -0.4906 H   0  0
   12.3029    0.7505    0.3975 H   0  0
    4.8447   -9.4921    1.0466 H   0  0
  2  1  1  0
 19 15  1  0
 16 17  1  0
 17 18  1  0
 20 18  1  0
 19 20  1  0
  2  3  1  0
  7 11  1  0
  8  9  1  0
 10  9  1  0
 12 10  1  0
 20 21  1  0
 21 22  1  0
 23 22  1  0
 19 23  1  0
 12 11  1  0
 21 24  1  0
  4  6  1  0
 24 25  1  0
  2  5  1  0
 24 26  1  0
  2  8  1  0
 20 27  1  0
  7  6  1  0
 27 28  1  0
 11 14  2  0
 16 12  1  0
 15 29  1  0
 15 13  1  0
 16 30  1  0
 13 14  1  0
 15 16  1  0
 10 31  1  0
  7  8  2  0
  5 32  1  0
  5  4  1  0
 23 33  1  0
  3 34  1  0
  1 35  1  0
  1 36  1  0
  1 37  1  0
  3 38  1  0
  3 39  1  0
  4 40  1  0
  4 41  1  0
  5 42  1  0
  6 43  1  0
  6 44  1  0
  9 45  1  0
  9 46  1  0
 10 47  1  0
 12 48  1  0
 13 49  1  0
 13 50  1  0
 14 51  1  0
 17 52  1  0
 17 53  1  0
 18 54  1  0
 18 55  1  0
 19 56  1  0
 21 57  1  0
 22 58  1  0
 22 59  1  0
 23 60  1  0
 24 61  1  0
 25 62  1  0
 25 63  1  0
 25 64  1  0
 26 65  1  0
 26 66  1  0
 26 67  1  0
 27 68  1  0
 27 69  1  0
 28 70  1  0
 29 71  1  0
 29 72  1  0
 29 73  1  0
 30 74  1  0
 30 75  1  0
 30 76  1  0
 31 77  1  0
 32 78  1  0
 33 79  1  0
 34 80  1  0
M  END
> <Name>
Molecule

> <Clean Energy>
214.387

> <From>
www.bindingDB.org

> <BindingDB Reactant_set_id>
50948731

> <Ligand InChI>
InChI=1S/C29H46O5/c1-16(2)19-12-22(33)25-28(5)9-8-18-17-6-7-23(34)26(3,14-30)20(17)13-21(32)24(18)27(28,4)10-11-29(19,25)15-31/h8,16,19,21-25,30-34H,6-7,9-15H2,1-5H3/t19-,21-,22+,23-,24-,25+,26-,27-,2
8+,29+/m0/s1

> <Ligand InChI Key>
NOVAZXBJXPYDOZ-LXMMOFSFSA-N

> <BindingDB MonomerID>
50389209

> <BindingDB Ligand Name>
CHEMBL2063152

> <Target Name>
Tyrosine-protein phosphatase non-receptor type 1

> <Target Source Organism According to Curator or DataSource>
Homo sapiens

> <IC50 (nM)>
6800

> <Curation/DataSource>
ChEMBL

> <Article DOI>
10.1021/np300259s

> <BindingDB Entry DOI>
10.7270/Q2668F8J

> <PMID>
22690646

> <Authors>
Xiong, L; Zhu, M; Zhu, C; Lin, S; Yang, Y; Shi, J

> <Institution>
Chinese Academy of Medical Sciences and Peking Union Medical College

> <Link to Ligand in BindingDB>
http://www.bindingdb.org/bind/chemsearch/marvin/MolStructure.jsp?monomerid=50389209

> <Link to Ligand-Target Pair in BindingDB>
http://www.bindingdb.org/jsp/dbsearch/PrimarySearch_ki.jsp?energyterm=kJ/mole&tag=pol&polymerid=2622&target=Tyrosine-protein+phosphatase+non-receptor+type+1&column=ki&startPg=0&Increment=50&submit=Sea
rch
http://www.bindingdb.org/jsp/dbsearch/PrimarySearch_ki.jsp?energyterm=kJ/mole&tag=r21&monomerid=50389209&enzyme=Tyrosine-protein+phosphatase+non-receptor+type+1&column=ki&startPg=0&Increment=50&submit
=Search

> <PubChem CID of Ligand>
60155761

> <PubChem SID of Ligand>
160868292

> <ChEMBL ID of Ligand>
CHEMBL2063152

> <ZINC ID of Ligand>
ZINC84711699

> <Number of Protein Chains in Target (bigger than 1 implies a multichain complex)>
1

> <BindingDB Target Chain Sequence>
MEMEKEFEQIDKSGSWAAIYQDIRHEASDFPCRVAKLPKNKNRNRYRDVSPFDHSRIKLHQEDNDYINASLIKMEEAQRSYILTQGPLPNTCGHFWEMVWEQKSRGVVMLNRVMEKGSLKCAQYWPQKEEKEMIFEDTNLKLTLISEDIKSYYTVRQLELENLTTQETREILHFHYTTWPDFGVPESPASFLNFLFKVRE
SGSLSPEHGPVVVHCSAGIGRSGTFCLADTCLLLMDKRKDPSSVDIKKVLLEMRKFRMGLIQTADQLRFSYLAVIEGAKFIMGDSSVQDQWKELSHEDLEPPPEHIPPPPRPPKRILEPHNGKCREFFPNHQWVKEETQEDKDCPIKEEKGSPLNAAPYGIESMSQDTEVRSRVVGGSLRGAQAASPAKGEPSLPEKDED
HALSYWKPFLVNMCVATVLTAGAYLCYRFLFNSNT

> <PDB ID(s) of Target Chain>
1BZJ,1G7G,1GFY,1JF7,1KAK,1KAV,1LQF,1NL9,1NNY,1NO6,1NZ7,1OEM,1OEO,1OES,1OET,1OEU,1OEV,1ONY,1ONZ,1PH0,1PXH,1PYN,1Q1M,1Q6J,1Q6M,1Q6N,1Q6P,1Q6S,1Q6T,1QXK,1SUG,1T48,1T49,1T4J,1WAX,1XBO,2AZR,2B07,2BGD,2BGE,
2CM2,2CM3,2CM7,2CM8,2CMA,2CMB,2CMC,2CNE,2CNF,2CNG,2CNH,2CNI,2F6T,2F6V,2F6W,2F6Y,2F6Z,2F70,2F71,2FJN,2H4G,2H4K,2HB1,2HNP,2HNQ,2QBP,2QBQ,2QBR,2QBS,2VEU,2VEV,2VEW,2VEX,2VEY,2ZMM,2ZN7,3A5J,3CWE,3D9C,3EAX,
3EB1,3EU0,3I7Z,3I80,3SME,4BJO,4I8N,4QBW,4Y14,5K9V,5K9W,5KA0,5KA1,5T19,6B90,6NTP,6W30,7KEY,7KLX,7LFO,7MN9,7MNA,8DU7,8G65,8G67,8G68,8G69,8G6A,8SKL

> <UniProt (SwissProt) Recommended Name of Target Chain>
Tyrosine-protein phosphatase non-receptor type 1

> <UniProt (SwissProt) Entry Name of Target Chain>
PTN1_HUMAN

> <UniProt (SwissProt) Primary ID of Target Chain>
P18031

> <UniProt (SwissProt) Secondary ID(s) of Target Chain>
Q5TGD8 Q9BQV9 Q9NQQ4

$$$$
Molecule
  SciTegic10242319433D

 79 83  0  0  0  0            999 V2000
   -4.5259  -14.4435   -1.3643 C   0  0
   -5.0587  -13.7457   -0.0961 C   0  0
   -5.4908  -14.8049    0.9409 C   0  0
   -6.5305  -11.6557    0.2948 C   0  0
   -6.2228  -12.8260   -0.6233 C   0  0  2  0  0  0
   -5.1515  -10.8616    0.0666 C   0  0
   -3.9718  -11.4979    0.2196 C   0  0
   -4.0856  -12.8518    0.7353 C   0  0  2  0  0  0
   -2.7836  -13.5074    1.1820 C   0  0
   -1.5904  -13.1800    0.2741 C   0  0  1  0  0  0
   -2.6540  -10.8616    0.0083 C   0  0
   -1.3939  -11.6162    0.4599 C   0  0  2  0  0  0
   -1.2406   -8.8595   -0.7061 C   0  0
   -2.5829   -9.6052   -0.4796 C   0  0
   -0.0415   -9.4739    0.0881 C   0  0  1  0  0  0
   -0.0616  -11.0006   -0.1427 C   0  0  1  0  0  0
    1.1304  -11.5749    0.7274 C   0  0
    2.4877  -11.0099    0.3099 C   0  0
    1.3975   -8.8135   -0.3866 C   0  0  2  0  0  0
    2.6151   -9.4321    0.3088 C   0  0  1  0  0  0
    3.7619   -8.2731   -0.0817 C   0  0  1  0  0  0
    2.9872   -6.9232    0.0007 C   0  0
    1.5322   -7.3379    0.1599 C   0  0  1  0  0  0
    5.2073   -8.0654    0.6569 C   0  0
    6.2916   -9.1745    0.6816 C   0  0
    5.8805   -6.8302    0.0273 C   0  0
    3.4368  -10.2931   -0.7692 C   0  0
    4.5344  -11.0936   -0.2171 O   0  0
   -0.2411   -9.2161    1.6378 C   0  0
    0.0725  -11.3146   -1.6727 C   0  0
   -0.4822  -13.9313    0.7650 O   0  0
   -7.3393  -13.6279   -1.0133 O   0  0
    0.6067   -6.3760   -0.3529 O   0  0
   -4.2223  -13.6919   -2.0929 H   0  0
   -5.3100  -15.0681   -1.7925 H   0  0
   -3.6684  -15.0645   -1.1049 H   0  0
   -5.8663  -14.3069    1.8347 H   0  0
   -4.6350  -15.4265    1.2043 H   0  0
   -6.2765  -15.4300    0.5166 H   0  0
   -6.6679  -11.9637    1.3313 H   0  0
   -7.3994  -11.0854   -0.0336 H   0  0
   -5.8476  -12.3817   -1.5452 H   0  0
   -5.1696   -9.8080   -0.2120 H   0  0
   -4.6231  -12.7118    1.6732 H   0  0
   -2.5534  -13.1650    2.1909 H   0  0
   -2.9260  -14.5880    1.1881 H   0  0
   -1.8060  -13.4292   -0.7649 H   0  0
   -1.3282  -11.4564    1.5361 H   0  0
   -1.3655   -7.8227   -0.3938 H   0  0
   -1.0030   -8.8931   -1.7693 H   0  0
   -3.5114   -9.0902   -0.7261 H   0  0
    0.9533  -11.3214    1.7726 H   0  0
    1.1540  -12.6589    0.6149 H   0  0
    3.2375  -11.4038    0.9960 H   0  0
    2.6982  -11.3615   -0.7001 H   0  0
    1.5059   -8.8434   -1.4707 H   0  0
    3.9869   -8.4222   -1.1378 H   0  0
    3.3188   -6.3390    0.8591 H   0  0
    3.1259   -6.3416   -0.9107 H   0  0
    1.3484   -7.3938    1.2328 H   0  0
    4.9950   -7.8114    1.6954 H   0  0
    7.1658   -8.8166    1.2255 H   0  0
    6.5777   -9.4264   -0.3395 H   0  0
    5.8943  -10.0608    1.1764 H   0  0
    6.8490   -6.6637    0.4988 H   0  0
    5.2485   -5.9550    0.1779 H   0  0
    6.0209   -6.9971   -1.0407 H   0  0
    2.7399  -10.9703   -1.2630 H   0  0
    3.8565   -9.6046   -1.5026 H   0  0
    5.2278  -10.4607    0.2530 H   0  0
   -1.1885   -9.6486    1.9595 H   0  0
   -0.2482   -8.1432    1.8302 H   0  0
    0.5756   -9.6788    2.1917 H   0  0
   -0.7781  -10.8914   -2.2069 H   0  0
    0.0941  -12.3941   -1.8221 H   0  0
    0.9949  -10.8768   -2.0545 H   0  0
   -0.2827  -13.6534    1.7577 H   0  0
   -7.0476  -14.2875   -1.7764 H   0  0
    0.7312   -5.4649    0.1541 H   0  0
  2  1  1  0
 19 15  1  0
 16 17  1  0
 17 18  1  0
 20 18  1  0
 19 20  1  0
  3  2  1  0
  7 11  1  0
  8  9  1  0
 10  9  1  0
 12 10  1  0
 20 21  1  0
 21 22  1  0
 23 22  1  0
 19 23  1  0
 12 11  1  0
 21 24  1  0
  4  6  1  0
 24 25  1  0
  5  2  1  0
 24 26  1  0
  8  2  1  0
 20 27  1  0
  7  6  2  0
 27 28  1  0
 11 14  2  0
 16 12  1  0
 15 29  1  0
 15 13  1  0
 16 30  1  0
 13 14  1  0
 15 16  1  0
 10 31  1  0
  8  7  1  0
  5 32  1  0
  5  4  1  0
 23 33  1  0
  1 34  1  0
  1 35  1  0
  1 36  1  0
  3 37  1  0
  3 38  1  0
  3 39  1  0
  4 40  1  0
  4 41  1  0
  5 42  1  0
  6 43  1  0
  8 44  1  0
  9 45  1  0
  9 46  1  0
 10 47  1  0
 12 48  1  0
 13 49  1  0
 13 50  1  0
 14 51  1  0
 17 52  1  0
 17 53  1  0
 18 54  1  0
 18 55  1  0
 19 56  1  0
 21 57  1  0
 22 58  1  0
 22 59  1  0
 23 60  1  0
 24 61  1  0
 25 62  1  0
 25 63  1  0
 25 64  1  0
 26 65  1  0
 26 66  1  0
 26 67  1  0
 27 68  1  0
 27 69  1  0
 28 70  1  0
 29 71  1  0
 29 72  1  0
 29 73  1  0
 30 74  1  0
 30 75  1  0
 30 76  1  0
 31 77  1  0
 32 78  1  0
 33 79  1  0
M  END
> <Name>
Molecule

> <Clean Energy>
266.221

> <From>
www.bindingDB.org

> <BindingDB Reactant_set_id>
50948732

> <Ligand InChI>
InChI=1S/C29H46O4/c1-16(2)19-13-22(32)25-28(6)10-9-18-17-7-8-23(33)26(3,4)20(17)14-21(31)24(18)27(28,5)11-12-29(19,25)15-30/h7,9,16,19-25,30-33H,8,10-15H2,1-6H3/t19-,20-,21-,22+,23-,24-,25+,27-,28+,29
+/m0/s1

> <Ligand InChI Key>
QUGMJAYSRDUJID-WOSWGKDQSA-N

> <BindingDB MonomerID>
50389210

> <BindingDB Ligand Name>
CHEMBL2063153

> <Target Name>
Tyrosine-protein phosphatase non-receptor type 1

> <Target Source Organism According to Curator or DataSource>
Homo sapiens

> <IC50 (nM)>
6800

> <Curation/DataSource>
ChEMBL

> <Article DOI>
10.1021/np300259s

> <BindingDB Entry DOI>
10.7270/Q2668F8J

> <PMID>
22690646

> <Authors>
Xiong, L; Zhu, M; Zhu, C; Lin, S; Yang, Y; Shi, J

> <Institution>
Chinese Academy of Medical Sciences and Peking Union Medical College

> <Link to Ligand in BindingDB>
http://www.bindingdb.org/bind/chemsearch/marvin/MolStructure.jsp?monomerid=50389210

> <Link to Ligand-Target Pair in BindingDB>
http://www.bindingdb.org/jsp/dbsearch/PrimarySearch_ki.jsp?energyterm=kJ/mole&tag=pol&polymerid=2622&target=Tyrosine-protein+phosphatase+non-receptor+type+1&column=ki&startPg=0&Increment=50&submit=Sea
rch
http://www.bindingdb.org/jsp/dbsearch/PrimarySearch_ki.jsp?energyterm=kJ/mole&tag=r21&monomerid=50389210&enzyme=Tyrosine-protein+phosphatase+non-receptor+type+1&column=ki&startPg=0&Increment=50&submit
=Search

> <PubChem CID of Ligand>
70682276

> <PubChem SID of Ligand>
160868293

> <ChEMBL ID of Ligand>
CHEMBL2063153

> <ZINC ID of Ligand>
ZINC84711701

> <Number of Protein Chains in Target (bigger than 1 implies a multichain complex)>
1

> <BindingDB Target Chain Sequence>
MEMEKEFEQIDKSGSWAAIYQDIRHEASDFPCRVAKLPKNKNRNRYRDVSPFDHSRIKLHQEDNDYINASLIKMEEAQRSYILTQGPLPNTCGHFWEMVWEQKSRGVVMLNRVMEKGSLKCAQYWPQKEEKEMIFEDTNLKLTLISEDIKSYYTVRQLELENLTTQETREILHFHYTTWPDFGVPESPASFLNFLFKVRE
SGSLSPEHGPVVVHCSAGIGRSGTFCLADTCLLLMDKRKDPSSVDIKKVLLEMRKFRMGLIQTADQLRFSYLAVIEGAKFIMGDSSVQDQWKELSHEDLEPPPEHIPPPPRPPKRILEPHNGKCREFFPNHQWVKEETQEDKDCPIKEEKGSPLNAAPYGIESMSQDTEVRSRVVGGSLRGAQAASPAKGEPSLPEKDED
HALSYWKPFLVNMCVATVLTAGAYLCYRFLFNSNT

> <PDB ID(s) of Target Chain>
1BZJ,1G7G,1GFY,1JF7,1KAK,1KAV,1LQF,1NL9,1NNY,1NO6,1NZ7,1OEM,1OEO,1OES,1OET,1OEU,1OEV,1ONY,1ONZ,1PH0,1PXH,1PYN,1Q1M,1Q6J,1Q6M,1Q6N,1Q6P,1Q6S,1Q6T,1QXK,1SUG,1T48,1T49,1T4J,1WAX,1XBO,2AZR,2B07,2BGD,2BGE,
2CM2,2CM3,2CM7,2CM8,2CMA,2CMB,2CMC,2CNE,2CNF,2CNG,2CNH,2CNI,2F6T,2F6V,2F6W,2F6Y,2F6Z,2F70,2F71,2FJN,2H4G,2H4K,2HB1,2HNP,2HNQ,2QBP,2QBQ,2QBR,2QBS,2VEU,2VEV,2VEW,2VEX,2VEY,2ZMM,2ZN7,3A5J,3CWE,3D9C,3EAX,
3EB1,3EU0,3I7Z,3I80,3SME,4BJO,4I8N,4QBW,4Y14,5K9V,5K9W,5KA0,5KA1,5T19,6B90,6NTP,6W30,7KEY,7KLX,7LFO,7MN9,7MNA,8DU7,8G65,8G67,8G68,8G69,8G6A,8SKL

> <UniProt (SwissProt) Recommended Name of Target Chain>
Tyrosine-protein phosphatase non-receptor type 1

> <UniProt (SwissProt) Entry Name of Target Chain>
PTN1_HUMAN

> <UniProt (SwissProt) Primary ID of Target Chain>
P18031

> <UniProt (SwissProt) Secondary ID(s) of Target Chain>
Q5TGD8 Q9BQV9 Q9NQQ4

$$$$
Molecule
  SciTegic10242319433D

 35 36  0  0  0  0            999 V2000
    4.9592   -9.9251   -0.0004 C   0  0
    6.2940   -9.2240   -0.0002 C   0  0
    6.4653   -7.9014    0.0000 C   0  0
    4.9706  -11.1610   -0.0007 O   0  0
    7.7832   -7.2164   -0.0001 C   0  0
    8.9620   -7.8643    0.0003 C   0  0
   10.2120   -7.0808    0.0002 C   0  0
   10.1788   -5.7504    0.0003 C   0  0
    8.9010   -5.0558    0.0000 C   0  0
    7.7678   -5.7502    0.0001 C   0  0
    9.0335   -9.2706    0.0002 O   0  0
   10.3943   -9.7259    0.0004 C   0  0
   11.3638   -5.0244    0.0003 O   0  0
    8.8495   -3.1562    0.0000 Br  0  0
    3.6082   -9.2483   -0.0001 C   0  0
    3.4457   -7.9222    0.0003 C   0  0
    2.1099   -7.3298    0.0005 C   0  0
    1.0359   -8.1139    0.0002 C   0  0
    2.4161  -10.1033   -0.0004 C   0  0
    1.1974   -9.5659   -0.0002 C   0  0
    0.0726  -10.3906   -0.0005 N   0  0
    7.1886   -9.8467   -0.0003 H   0  0
    5.5720   -7.2769    0.0001 H   0  0
   11.1722   -7.5966    0.0001 H   0  0
    6.8140   -5.2225    0.0002 H   0  0
   10.4133  -10.8157    0.0003 H   0  0
   10.9022   -9.3543    0.8904 H   0  0
   10.9025   -9.3541   -0.8893 H   0  0
   11.9212   -5.2633    0.8576 H   0  0
    4.3215   -7.2733    0.0005 H   0  0
    1.9938   -6.2460    0.0009 H   0  0
    0.0383   -7.6748    0.0004 H   0  0
    2.5287  -11.1875   -0.0008 H   0  0
   -0.9068   -9.9597   -0.0004 H   0  0
    0.1891  -11.4543   -0.0009 H   0  0
  1  2  1  0
  2  3  2  0
  1  4  2  0
  5  6  2  0
  6  7  1  0
  7  8  2  0
  8  9  1  0
  9 10  2  0
  5 10  1  0
 11 12  1  0
  6 11  1  0
  8 13  1  0
  9 14  1  0
  3  5  1  0
 15 16  2  0
 16 17  1  0
 17 18  2  0
 18 20  1  0
 20 19  2  0
 15 19  1  0
  1 15  1  0
 20 21  1  0
  2 22  1  0
  3 23  1  0
  7 24  1  0
 10 25  1  0
 12 26  1  0
 12 27  1  0
 12 28  1  0
 13 29  1  0
 16 30  1  0
 17 31  1  0
 18 32  1  0
 19 33  1  0
 21 34  1  0
 21 35  1  0
M  END
> <Name>
Molecule

> <Clean Energy>
4.20695

> <From>
www.bindingDB.org

> <BindingDB Reactant_set_id>
50641707

> <Ligand InChI>
InChI=1S/C16H14BrNO3/c1-21-16-9-15(20)13(17)8-11(16)5-6-14(19)10-3-2-4-12(18)7-10/h2-9,20H,18H2,1H3/b6-5+

> <Ligand InChI Key>
QBNJPHREIZHCJV-AATRIKPKSA-N

> <BindingDB MonomerID>
50344605

> <BindingDB Ligand Name>
(E)-1-(3-Aminophenyl)-3-(5-bromo-4-hydroxy-2-methoxyphenyl)prop-2-en-1-one::CHEMBL1778914

> <Target Name>
Tyrosine-protein phosphatase non-receptor type 1

> <Target Source Organism According to Curator or DataSource>
Homo sapiens

> <IC50 (nM)>
6800

> <Curation/DataSource>
ChEMBL

> <Article DOI>
10.1016/j.bmcl.2011.04.057

> <BindingDB Entry DOI>
10.7270/Q23J3D96

> <PMID>
21555221

> <Authors>
Liu, Z; Lee, W; Kim, SN; Yoon, G; Cheon, SH

> <Institution>
Chonnam National University

> <Link to Ligand in BindingDB>
http://www.bindingdb.org/bind/chemsearch/marvin/MolStructure.jsp?monomerid=50344605

> <Link to Ligand-Target Pair in BindingDB>
http://www.bindingdb.org/jsp/dbsearch/PrimarySearch_ki.jsp?energyterm=kJ/mole&tag=pol&polymerid=2622&target=Tyrosine-protein+phosphatase+non-receptor+type+1&column=ki&startPg=0&Increment=50&submit=Sea
rch
http://www.bindingdb.org/jsp/dbsearch/PrimarySearch_ki.jsp?energyterm=kJ/mole&tag=r21&monomerid=50344605&enzyme=Tyrosine-protein+phosphatase+non-receptor+type+1&column=ki&startPg=0&Increment=50&submit
=Search

> <PubChem CID of Ligand>
54583805

> <PubChem SID of Ligand>
131347541

> <ChEMBL ID of Ligand>
CHEMBL1778914

> <ZINC ID of Ligand>
ZINC71340880

> <Number of Protein Chains in Target (bigger than 1 implies a multichain complex)>
1

> <BindingDB Target Chain Sequence>
MEMEKEFEQIDKSGSWAAIYQDIRHEASDFPCRVAKLPKNKNRNRYRDVSPFDHSRIKLHQEDNDYINASLIKMEEAQRSYILTQGPLPNTCGHFWEMVWEQKSRGVVMLNRVMEKGSLKCAQYWPQKEEKEMIFEDTNLKLTLISEDIKSYYTVRQLELENLTTQETREILHFHYTTWPDFGVPESPASFLNFLFKVRE
SGSLSPEHGPVVVHCSAGIGRSGTFCLADTCLLLMDKRKDPSSVDIKKVLLEMRKFRMGLIQTADQLRFSYLAVIEGAKFIMGDSSVQDQWKELSHEDLEPPPEHIPPPPRPPKRILEPHNGKCREFFPNHQWVKEETQEDKDCPIKEEKGSPLNAAPYGIESMSQDTEVRSRVVGGSLRGAQAASPAKGEPSLPEKDED
HALSYWKPFLVNMCVATVLTAGAYLCYRFLFNSNT

> <PDB ID(s) of Target Chain>
1BZJ,1G7G,1GFY,1JF7,1KAK,1KAV,1LQF,1NL9,1NNY,1NO6,1NZ7,1OEM,1OEO,1OES,1OET,1OEU,1OEV,1ONY,1ONZ,1PH0,1PXH,1PYN,1Q1M,1Q6J,1Q6M,1Q6N,1Q6P,1Q6S,1Q6T,1QXK,1SUG,1T48,1T49,1T4J,1WAX,1XBO,2AZR,2B07,2BGD,2BGE,
2CM2,2CM3,2CM7,2CM8,2CMA,2CMB,2CMC,2CNE,2CNF,2CNG,2CNH,2CNI,2F6T,2F6V,2F6W,2F6Y,2F6Z,2F70,2F71,2FJN,2H4G,2H4K,2HB1,2HNP,2HNQ,2QBP,2QBQ,2QBR,2QBS,2VEU,2VEV,2VEW,2VEX,2VEY,2ZMM,2ZN7,3A5J,3CWE,3D9C,3EAX,
3EB1,3EU0,3I7Z,3I80,3SME,4BJO,4I8N,4QBW,4Y14,5K9V,5K9W,5KA0,5KA1,5T19,6B90,6NTP,6W30,7KEY,7KLX,7LFO,7MN9,7MNA,8DU7,8G65,8G67,8G68,8G69,8G6A,8SKL

> <UniProt (SwissProt) Recommended Name of Target Chain>
Tyrosine-protein phosphatase non-receptor type 1

> <UniProt (SwissProt) Entry Name of Target Chain>
PTN1_HUMAN

> <UniProt (SwissProt) Primary ID of Target Chain>
P18031

> <UniProt (SwissProt) Secondary ID(s) of Target Chain>
Q5TGD8 Q9BQV9 Q9NQQ4

$$$$
Molecule
  SciTegic10242319433D

 60 64  0  0  0  0            999 V2000
    6.4336    0.1338   -1.7535 O   0  0
    6.7609   -0.9123   -0.7072 S   0  0
    7.7204   -1.9154   -1.3188 O   0  0
    7.5513   -0.1088    0.5794 N   0  0
    7.8838    1.2467    0.3918 C   0  0
    7.2526    2.0502   -0.3768 N   0  0
    7.8388    3.4006   -0.4059 C   0  0
    8.9327    3.5284    0.3645 C   0  0
    9.1692    2.0386    1.0772 S   0  0
    5.2325   -1.7505   -0.3164 C   0  0
    5.0748   -2.9808   -0.7918 C   0  0
    3.8193   -3.6895   -0.6212 C   0  0
    4.1131   -1.0948    0.3972 C   0  0
    2.9467   -1.7437    0.5494 C   0  0
    2.7853   -3.1232   -0.0036 C   0  0
    1.5757   -3.9102    0.0543 N   0  0
    0.0057   -3.5229    0.7010 S   0  0
    0.3800   -2.3535   -0.1867 O   0  0
   -0.6411   -4.7539    0.0991 O   0  0
   -1.4733   -2.5477    0.4484 C   0  0
   -1.3969   -1.2234    0.3733 C   0  0
   -2.8132   -3.2037    0.3317 C   0  0
   -3.8802   -2.4150    0.1633 C   0  0
   -5.1628   -2.7812    0.0295 O   0  0
   -3.7848   -1.0428    0.1047 C   0  0
   -2.6098   -0.4506    0.1969 C   0  0
   -5.1805   -0.4858   -0.0622 C   0  0
   -5.9631   -1.6163   -0.0988 C   0  0
   -7.5087   -1.8418   -0.2588 C   0  0
   -8.5061   -0.7614    0.1927 C   0  0
   -5.6325    1.0664   -0.1721 C   0  0
   -6.8299    1.3222   -0.2978 O   0  0
   -4.7552    2.3311   -0.1255 C   0  0
   -5.3486    3.5264   -0.1183 C   0  0
   -4.5321    4.7667   -0.0644 C   0  0
   -5.3694    6.4691   -0.0392 Br  0  0
   -3.2028    4.6906   -0.0287 C   0  0
   -2.4270    5.8417    0.0244 O   0  0
   -2.5726    3.4029   -0.0448 C   0  0
   -3.3161    2.3111   -0.0900 C   0  0
   -0.6789    3.2427   -0.0008 Br  0  0
    7.7841   -0.6167    1.4919 H   0  0
    7.4252    4.2185   -0.9960 H   0  0
    9.5412    4.4230    0.4967 H   0  0
    5.8986   -3.4644   -1.3168 H   0  0
    3.7216   -4.7045   -1.0063 H   0  0
    4.2350   -0.0884    0.7978 H   0  0
    2.1200   -1.2656    1.0749 H   0  0
    1.6574   -4.8898   -0.3684 H   0  0
   -0.4310   -0.7231    0.4438 H   0  0
   -2.9161   -4.2877    0.3821 H   0  0
   -2.5503    0.6362    0.1394 H   0  0
   -7.6913   -2.0113   -1.3200 H   0  0
   -7.7521   -2.7448    0.3010 H   0  0
   -9.5234   -1.1022    0.0004 H   0  0
   -8.3210    0.1589   -0.3612 H   0  0
   -8.3817   -0.5744    1.2593 H   0  0
   -6.4360    3.5932   -0.1522 H   0  0
   -2.6171    6.4319   -0.8230 H   0  0
   -2.8130    1.3442   -0.1011 H   0  0
  1  2  2  0
  3  2  2  0
  4  2  1  0
 10  2  1  0
  5  4  1  0
  5  6  2  0
  5  9  1  0
  7  6  1  0
  7  8  2  0
  8  9  1  0
 10 11  2  0
 13 10  1  0
 11 12  1  0
 15 12  2  0
 14 13  2  0
 15 14  1  0
 15 16  1  0
 16 17  1  0
 18 17  2  0
 19 17  2  0
 20 17  1  0
 21 20  2  0
 20 22  1  0
 21 26  1  0
 22 23  2  0
 23 24  1  0
 25 23  1  0
 28 24  1  0
 26 25  2  0
 25 27  1  0
 28 27  2  0
 31 27  1  0
 29 28  1  0
 29 30  1  0
 31 32  2  0
 31 33  1  0
 33 34  2  0
 33 40  1  0
 34 35  1  0
 36 35  1  0
 35 37  2  0
 37 38  1  0
 37 39  1  0
 39 40  2  0
 41 39  1  0
  4 42  1  0
  7 43  1  0
  8 44  1  0
 11 45  1  0
 12 46  1  0
 13 47  1  0
 14 48  1  0
 16 49  1  0
 21 50  1  0
 22 51  1  0
 26 52  1  0
 29 53  1  0
 29 54  1  0
 30 55  1  0
 30 56  1  0
 30 57  1  0
 34 58  1  0
 38 59  1  0
 40 60  1  0
M  END
> <Name>
Molecule

> <Clean Energy>
169.418

> <From>
www.bindingDB.org

> <BindingDB Reactant_set_id>
50086563

> <Ligand InChI>
InChI=1S/C26H19Br2N3O7S3/c1-2-21-23(24(32)14-11-19(27)25(33)20(28)12-14)18-8-7-17(13-22(18)38-21)41(36,37)30-15-3-5-16(6-4-15)40(34,35)31-26-29-9-10-39-26/h3-13,30,33H,2H2,1H3,(H,29,31)

> <Ligand InChI Key>
SXKBTDJJEQQEGE-UHFFFAOYSA-N

> <BindingDB MonomerID>
50341989

> <BindingDB Ligand Name>
3-(3,5-DIBROMO-4-HYDROXY-BENZOYL)-2-ETHYL-BENZOFURAN-6-SULFONIC ACID [4-(THIAZOL-2-YLSULFAMOYL)-PHENYL]-AMIDE::3-(3,5-dibromo-4-hydroxybenzoyl)-2-ethyl-N-(4-(N-thiazol-2-ylsulfamoyl)phenyl)benzofuran-
6-sulfonamide::CHEMBL1232829

> <Target Name>
Tyrosine-protein phosphatase non-receptor type 1

> <Target Source Organism According to Curator or DataSource>
Homo sapiens

> <IC50 (nM)>
6810

> <Curation/DataSource>
ChEMBL

> <Article DOI>
10.1021/np4009078

> <BindingDB Entry DOI>
10.7270/Q2WW7K61

> <PMID>
24593120

> <Authors>
Chen, QB; Xin, XL; Yang, Y; Lee, SS; Aisa, HA

> <Institution>
Chinese Academy of Sciences

> <Link to Ligand in BindingDB>
http://www.bindingdb.org/bind/chemsearch/marvin/MolStructure.jsp?monomerid=50341989

> <Link to Ligand-Target Pair in BindingDB>
http://www.bindingdb.org/jsp/dbsearch/PrimarySearch_ki.jsp?energyterm=kJ/mole&tag=pol&polymerid=2622&target=Tyrosine-protein+phosphatase+non-receptor+type+1&column=ki&startPg=0&Increment=50&submit=Sea
rch
http://www.bindingdb.org/jsp/dbsearch/PrimarySearch_ki.jsp?energyterm=kJ/mole&tag=r21&monomerid=50341989&enzyme=Tyrosine-protein+phosphatase+non-receptor+type+1&column=ki&startPg=0&Increment=50&submit
=Search

> <Ligand HET ID in PDB>
FRJ

> <PDB ID(s) for Ligand-Target Complex>
1T4J,6B8Z

> <PubChem CID of Ligand>
448662

> <PubChem SID of Ligand>
131344925

> <ChEMBL ID of Ligand>
CHEMBL1232829

> <DrugBank ID of Ligand>
DB03311

> <ZINC ID of Ligand>
ZINC95544211

> <Number of Protein Chains in Target (bigger than 1 implies a multichain complex)>
1

> <BindingDB Target Chain Sequence>
MEMEKEFEQIDKSGSWAAIYQDIRHEASDFPCRVAKLPKNKNRNRYRDVSPFDHSRIKLHQEDNDYINASLIKMEEAQRSYILTQGPLPNTCGHFWEMVWEQKSRGVVMLNRVMEKGSLKCAQYWPQKEEKEMIFEDTNLKLTLISEDIKSYYTVRQLELENLTTQETREILHFHYTTWPDFGVPESPASFLNFLFKVRE
SGSLSPEHGPVVVHCSAGIGRSGTFCLADTCLLLMDKRKDPSSVDIKKVLLEMRKFRMGLIQTADQLRFSYLAVIEGAKFIMGDSSVQDQWKELSHEDLEPPPEHIPPPPRPPKRILEPHNGKCREFFPNHQWVKEETQEDKDCPIKEEKGSPLNAAPYGIESMSQDTEVRSRVVGGSLRGAQAASPAKGEPSLPEKDED
HALSYWKPFLVNMCVATVLTAGAYLCYRFLFNSNT

> <PDB ID(s) of Target Chain>
1BZJ,1G7G,1GFY,1JF7,1KAK,1KAV,1LQF,1NL9,1NNY,1NO6,1NZ7,1OEM,1OEO,1OES,1OET,1OEU,1OEV,1ONY,1ONZ,1PH0,1PXH,1PYN,1Q1M,1Q6J,1Q6M,1Q6N,1Q6P,1Q6S,1Q6T,1QXK,1SUG,1T48,1T49,1T4J,1WAX,1XBO,2AZR,2B07,2BGD,2BGE,
2CM2,2CM3,2CM7,2CM8,2CMA,2CMB,2CMC,2CNE,2CNF,2CNG,2CNH,2CNI,2F6T,2F6V,2F6W,2F6Y,2F6Z,2F70,2F71,2FJN,2H4G,2H4K,2HB1,2HNP,2HNQ,2QBP,2QBQ,2QBR,2QBS,2VEU,2VEV,2VEW,2VEX,2VEY,2ZMM,2ZN7,3A5J,3CWE,3D9C,3EAX,
3EB1,3EU0,3I7Z,3I80,3SME,4BJO,4I8N,4QBW,4Y14,5K9V,5K9W,5KA0,5KA1,5T19,6B90,6NTP,6W30,7KEY,7KLX,7LFO,7MN9,7MNA,8DU7,8G65,8G67,8G68,8G69,8G6A,8SKL

> <UniProt (SwissProt) Recommended Name of Target Chain>
Tyrosine-protein phosphatase non-receptor type 1

> <UniProt (SwissProt) Entry Name of Target Chain>
PTN1_HUMAN

> <UniProt (SwissProt) Primary ID of Target Chain>
P18031

> <UniProt (SwissProt) Secondary ID(s) of Target Chain>
Q5TGD8 Q9BQV9 Q9NQQ4

$$$$
Molecule
  SciTegic10242319433D

 82 85  0  0  0  0            999 V2000
   16.3116  -10.2565   -1.4358 O   0  0
   16.1730  -10.6441    0.0246 S   0  0
   16.6791   -9.5032    0.8868 O   0  0
   11.0047    1.6636    1.2741 O   0  0
   11.6677    1.0013    0.0821 S   0  0
   11.0971    1.6066   -1.1861 O   0  0
    5.6658   -8.7677   -0.7340 C   0  0
    7.2203   -8.6581   -0.6771 C   0  0  1  0  0  0
    7.3017   -7.1217   -0.4372 C   0  0  1  0  0  0
    6.3565   -6.9998    0.7923 C   0  0
    5.2494   -7.8125    0.2916 N   0  0
    3.8750   -7.5623    0.6608 C   0  0
    3.6417   -6.6350    1.4493 O   0  0
    2.7069   -8.3859    0.1859 C   0  0
    1.4632   -7.9918    0.5174 N   0  0
    2.8852   -9.4116   -0.4871 O   0  0
    8.6641   -6.6495   -0.2395 O   0  0
    7.8288   -9.4467    0.4380 O   0  0
    8.9343   -5.2633   -0.1446 C   0  0
    9.3127   -9.5435    0.3481 C   0  0
   10.2056   -4.9024    0.0403 C   0  0
   10.5869   -3.4910    0.0979 C   0  0
    9.6577   -2.5493   -0.0390 C   0  0
    8.2511   -2.9344   -0.2365 C   0  0
    7.9043   -4.2219   -0.2878 C   0  0
   10.0238  -10.2243    1.2583 C   0  0
   11.5279  -10.3085    1.1383 C   0  0
   12.1507   -9.6940    0.1241 C   0  0
   11.3738   -8.9782   -0.8541 C   0  0
   10.0555   -8.9177   -0.7638 C   0  0
   10.0306   -1.1267   -0.0214 C   0  0
   11.3009   -0.7376    0.1017 C   0  0
   13.3434    1.2847    0.1358 O   0  0
   13.5668    2.7015    0.1001 C   0  0
   15.0766    2.9996    0.1438 C   0  0
   13.6598   -9.6888   -0.0679 C   0  0
   14.4103  -10.9494    0.3958 C   0  0
   17.1197  -12.0272    0.3033 O   0  0
   18.4752  -11.7330   -0.0702 C   0  0
   19.3533  -12.9865    0.0979 C   0  0
    0.2555   -8.7059    0.2111 C   0  0
   -0.9129   -8.0672    0.2833 C   0  0
   -2.1709   -8.7784    0.0094 C   0  0
   -2.1523  -10.0748   -0.2949 C   0  0
   -0.8764  -10.7878   -0.3659 C   0  0
    0.2659  -10.1414   -0.1319 C   0  0
    5.2857   -8.4839   -1.7154 H   0  0
    5.3321   -9.7768   -0.4924 H   0  0
    7.6660   -8.9279   -1.6346 H   0  0
    6.8588   -6.6002   -1.2858 H   0  0
    6.7997   -7.4203    1.6950 H   0  0
    6.0573   -5.9686    0.9803 H   0  0
    1.3664   -7.0707    1.0532 H   0  0
   10.9712   -5.6704    0.1500 H   0  0
   11.6292   -3.2122    0.2524 H   0  0
    7.4879   -2.1632   -0.3416 H   0  0
    6.8612   -4.5015   -0.4354 H   0  0
    9.5159  -10.7182    2.0867 H   0  0
   12.1044  -10.8679    1.8751 H   0  0
   11.8792   -8.4790   -1.6809 H   0  0
    9.4986   -8.3878   -1.5367 H   0  0
    9.2498   -0.3715   -0.1110 H   0  0
   12.0985   -1.4723    0.2121 H   0  0
   13.1452    3.1100   -0.8183 H   0  0
   13.0829    3.1645    0.9601 H   0  0
   15.2356    4.0775    0.1163 H   0  0
   15.5634    2.5390   -0.7158 H   0  0
   15.5012    2.5936    1.0620 H   0  0
   13.8586   -9.5564   -1.1314 H   0  0
   14.0619   -8.8404    0.4858 H   0  0
   14.2689  -11.1031    1.4657 H   0  0
   14.0541  -11.8245   -0.1477 H   0  0
   18.5006  -11.4119   -1.1115 H   0  0
   18.8595  -10.9356    0.5659 H   0  0
   20.3790  -12.7532   -0.1878 H   0  0
   18.9724  -13.7855   -0.5382 H   0  0
   19.3311  -13.3094    1.1387 H   0  0
   -0.9358   -7.0100    0.5474 H   0  0
   -3.1196   -8.2437    0.0556 H   0  0
   -3.0852  -10.6034   -0.4905 H   0  0
   -0.8600  -11.8499   -0.6106 H   0  0
    1.2135  -10.6765   -0.1943 H   0  0
  2  1  2  0
  3  2  2  0
  5  4  2  0
  6  5  2  0
  7  8  1  0
  8  9  1  0
  9 10  1  0
 10 11  1  0
 11  7  1  0
 11 12  1  0
 12 13  2  0
 12 14  1  0
 14 15  1  0
 14 16  2  0
  9 17  1  0
  8 18  1  0
 17 19  1  0
 18 20  1  0
 19 21  2  0
 21 22  1  0
 22 23  2  0
 23 24  1  0
 24 25  2  0
 25 19  1  0
 20 26  2  0
 26 27  1  0
 27 28  2  0
 28 29  1  0
 29 30  2  0
 30 20  1  0
 23 31  1  0
 31 32  2  0
 32  5  1  0
  5 33  1  0
 33 34  1  0
 34 35  1  0
 28 36  1  0
 36 37  1  0
 37  2  1  0
  2 38  1  0
 38 39  1  0
 39 40  1  0
 15 41  1  0
 41 42  2  0
 42 43  1  0
 43 44  2  0
 44 45  1  0
 45 46  2  0
 46 41  1  0
  7 47  1  0
  7 48  1  0
  8 49  1  0
  9 50  1  0
 10 51  1  0
 10 52  1  0
 15 53  1  0
 21 54  1  0
 22 55  1  0
 24 56  1  0
 25 57  1  0
 26 58  1  0
 27 59  1  0
 29 60  1  0
 30 61  1  0
 31 62  1  0
 32 63  1  0
 34 64  1  0
 34 65  1  0
 35 66  1  0
 35 67  1  0
 35 68  1  0
 36 69  1  0
 36 70  1  0
 37 71  1  0
 37 72  1  0
 39 73  1  0
 39 74  1  0
 40 75  1  0
 40 76  1  0
 40 77  1  0
 42 78  1  0
 43 79  1  0
 44 80  1  0
 45 81  1  0
 46 82  1  0
M  END
> <Name>
Molecule

> <Clean Energy>
37.9282

> <From>
www.bindingDB.org

> <BindingDB Reactant_set_id>
51310241

> <Ligand InChI>
InChI=1S/C32H36N2O10S2/c1-3-41-45(37,38)20-18-24-10-14-27(15-11-24)43-29-22-34(32(36)31(35)33-26-8-6-5-7-9-26)23-30(29)44-28-16-12-25(13-17-28)19-21-46(39,40)42-4-2/h5-18,20,29-30H,3-4,19,21-23H2,1-2H
3,(H,33,35)/b20-18+/t29-,30+/m1/s1

> <Ligand InChI Key>
DAGXYONTKBHFFV-ONKGAQLOSA-N

> <BindingDB MonomerID>
50531693

> <BindingDB Ligand Name>
CHEMBL4445389

> <Target Name>
Tyrosine-protein phosphatase non-receptor type 1

> <Target Source Organism According to Curator or DataSource>
Homo sapiens

> <IC50 (nM)>
6840

> <Curation/DataSource>
ChEMBL

> <Article DOI>
10.1016/j.ejmech.2018.12.032

> <BindingDB Entry DOI>
10.7270/Q2KK9G90

> <PMID>
30611982

> <Authors>
Xie, F; Yang, F; Liang, Y; Li, L; Xia, Y; Jiang, F; Liu, W; Qi, Y; Chowdhury, SR; Xie, D; Fu, L

> <Institution>
Shanghai Jiao Tong University (SJTU)

> <Link to Ligand in BindingDB>
http://www.bindingdb.org/bind/chemsearch/marvin/MolStructure.jsp?monomerid=50531693

> <Link to Ligand-Target Pair in BindingDB>
http://www.bindingdb.org/jsp/dbsearch/PrimarySearch_ki.jsp?energyterm=kJ/mole&tag=pol&polymerid=2622&target=Tyrosine-protein+phosphatase+non-receptor+type+1&column=ki&startPg=0&Increment=50&submit=Sea
rch
http://www.bindingdb.org/jsp/dbsearch/PrimarySearch_ki.jsp?energyterm=kJ/mole&tag=r21&monomerid=50531693&enzyme=Tyrosine-protein+phosphatase+non-receptor+type+1&column=ki&startPg=0&Increment=50&submit
=Search

> <PubChem CID of Ligand>
155517759

> <PubChem SID of Ligand>
440740275

> <Number of Protein Chains in Target (bigger than 1 implies a multichain complex)>
1

> <BindingDB Target Chain Sequence>
MEMEKEFEQIDKSGSWAAIYQDIRHEASDFPCRVAKLPKNKNRNRYRDVSPFDHSRIKLHQEDNDYINASLIKMEEAQRSYILTQGPLPNTCGHFWEMVWEQKSRGVVMLNRVMEKGSLKCAQYWPQKEEKEMIFEDTNLKLTLISEDIKSYYTVRQLELENLTTQETREILHFHYTTWPDFGVPESPASFLNFLFKVRE
SGSLSPEHGPVVVHCSAGIGRSGTFCLADTCLLLMDKRKDPSSVDIKKVLLEMRKFRMGLIQTADQLRFSYLAVIEGAKFIMGDSSVQDQWKELSHEDLEPPPEHIPPPPRPPKRILEPHNGKCREFFPNHQWVKEETQEDKDCPIKEEKGSPLNAAPYGIESMSQDTEVRSRVVGGSLRGAQAASPAKGEPSLPEKDED
HALSYWKPFLVNMCVATVLTAGAYLCYRFLFNSNT

> <PDB ID(s) of Target Chain>
1BZJ,1G7G,1GFY,1JF7,1KAK,1KAV,1LQF,1NL9,1NNY,1NO6,1NZ7,1OEM,1OEO,1OES,1OET,1OEU,1OEV,1ONY,1ONZ,1PH0,1PXH,1PYN,1Q1M,1Q6J,1Q6M,1Q6N,1Q6P,1Q6S,1Q6T,1QXK,1SUG,1T48,1T49,1T4J,1WAX,1XBO,2AZR,2B07,2BGD,2BGE,
2CM2,2CM3,2CM7,2CM8,2CMA,2CMB,2CMC,2CNE,2CNF,2CNG,2CNH,2CNI,2F6T,2F6V,2F6W,2F6Y,2F6Z,2F70,2F71,2FJN,2H4G,2H4K,2HB1,2HNP,2HNQ,2QBP,2QBQ,2QBR,2QBS,2VEU,2VEV,2VEW,2VEX,2VEY,2ZMM,2ZN7,3A5J,3CWE,3D9C,3EAX,
3EB1,3EU0,3I7Z,3I80,3SME,4BJO,4I8N,4QBW,4Y14,5K9V,5K9W,5KA0,5KA1,5T19,6B90,6NTP,6W30,7KEY,7KLX,7LFO,7MN9,7MNA,8DU7,8G65,8G67,8G68,8G69,8G6A,8SKL

> <UniProt (SwissProt) Recommended Name of Target Chain>
Tyrosine-protein phosphatase non-receptor type 1

> <UniProt (SwissProt) Entry Name of Target Chain>
PTN1_HUMAN

> <UniProt (SwissProt) Primary ID of Target Chain>
P18031

> <UniProt (SwissProt) Secondary ID(s) of Target Chain>
Q5TGD8 Q9BQV9 Q9NQQ4

$$$$
Molecule
  SciTegic10242319433D

328330  0  0  0  0            999 V2000
  -15.4470  -22.2964    0.0517 N   0  0
  -14.5015  -21.2147   -0.2812 C   0  0  2  0  0  0
  -12.9799  -22.6021    0.9667 O   0  0
  -13.0849  -21.6297    0.2095 C   0  0
  -15.0780  -19.8803    0.3581 C   0  0
  -13.0569  -18.4582   -0.3710 C   0  0
  -14.3263  -18.5851    0.0571 C   0  0
  -12.7721  -17.0746   -0.5289 N   0  0
  -14.8572  -17.2450    0.1510 C   0  0
  -13.9460  -16.4037   -0.1932 C   0  0
  -14.1647  -14.9726   -0.2234 C   0  0
  -15.3862  -14.5421    0.1212 C   0  0
  -16.4509  -15.5165    0.5187 C   0  0
  -16.1997  -16.8356    0.5383 C   0  0
  -11.9754  -20.9932   -0.2296 N   0  0
  -10.5998  -21.3703    0.1687 C   0  0  1  0  0  0
   -9.9751  -19.2292   -0.7268 O   0  0
  -10.1837  -22.6428   -0.5919 C   0  0
   -9.5593  -20.2499   -0.1651 C   0  0
   -6.2655  -14.4562    0.0589 N   0  0
   -6.6701  -13.1205    0.0588 C   0  0
   -7.9845  -12.7863    0.3915 N   0  0
   -5.8447  -12.2093   -0.2627 N   0  0
   -8.2169  -20.3912    0.1157 N   0  0
   -7.1645  -19.3356   -0.2380 C   0  0  2  0  0  0
   -5.5499  -20.7131    0.9703 O   0  0
   -5.6717  -19.7248    0.2372 C   0  0
   -7.5931  -17.9707    0.3856 C   0  0
   -6.6462  -16.8404   -0.0473 C   0  0
   -7.1736  -15.4899    0.4639 C   0  0
   -4.5344  -19.0081   -0.1423 N   0  0
   -3.0777  -19.3503    0.3079 C   0  0  2  0  0  0
   -2.1957  -17.7671   -1.3512 O   0  0
   -1.9146  -18.3923   -0.3232 C   0  0
   -2.7924  -20.7975   -0.1538 C   0  0
   -1.3968  -21.2348    0.3091 C   0  0
   -1.1449  -22.6439   -0.1227 C   0  0
   -0.0418  -23.1614    0.0819 O   0  0
   -2.1511  -23.3713   -0.7512 O   0  0
   -0.6291  -18.2229    0.2438 N   0  0
    0.5215  -17.2588   -0.3274 C   0  0  2  0  0  0
    2.2601  -18.8322    0.5829 O   0  0
    2.1025  -17.7250    0.0559 C   0  0
    0.2895  -15.7779    0.2204 C   0  0  1  0  0  0
    1.3177  -14.7984   -0.3788 C   0  0
   -1.1115  -15.2284   -0.1505 C   0  0
   -1.3018  -13.8101    0.4174 C   0  0
    3.2603  -16.9359   -0.1966 N   0  0
    4.7786  -17.3391    0.1470 C   0  0
    5.6380  -15.0978   -0.5556 O   0  0
    5.9840  -16.2031   -0.1231 C   0  0
    7.3721  -16.4348    0.1192 N   0  0
    8.5626  -15.3536   -0.1256 C   0  0  1  0  0  0
   10.3579  -16.8825    0.7238 O   0  0
    8.2685  -14.1119    0.7403 C   0  0
   10.1597  -15.7789    0.2033 C   0  0
   11.2825  -14.9202   -0.0419 N   0  0
   12.8448  -15.2496    0.3195 C   0  0  2  0  0  0
   13.6681  -13.1522   -0.8123 O   0  0
   14.0435  -14.1356   -0.1638 C   0  0
   13.2031  -16.6628   -0.2216 C   0  0
   14.6043  -17.0881    0.2593 C   0  0
   14.9119  -18.4803   -0.1946 C   0  0
   16.0275  -18.9657    0.0247 O   0  0
   13.9352  -19.2373   -0.8420 N   0  0
   15.4439  -14.2510    0.1452 N   0  0
   16.6156  -13.1963   -0.2755 C   0  0  2  0  0  0
   18.3771  -14.5667    0.9049 O   0  0
   18.2094  -13.5859    0.1713 C   0  0
   16.1249  -11.7921    0.3068 C   0  0
   16.9232  -10.4734   -0.0457 C   0  0
   16.0676   -9.2747    0.3906 C   0  0
   18.2652  -10.3287    0.7013 C   0  0
   24.3518  -16.7081   -0.0143 N   0  0
   24.7553  -18.0425   -0.0351 C   0  0
   23.8506  -19.0383   -0.4070 N   0  0
   25.9406  -18.3533    0.3013 N   0  0
   19.3603  -12.8469   -0.2403 N   0  0
   20.8946  -13.1448    0.1841 C   0  0  2  0  0  0
   21.6832  -11.0114   -0.8952 O   0  0
   22.0659  -11.9899   -0.2442 C   0  0
   21.2931  -14.5266   -0.4064 C   0  0
   22.6915  -14.9512    0.0814 C   0  0
   23.0324  -16.3506   -0.4488 C   0  0
   25.7146   -6.1455    0.0042 N   0  0
   25.4127   -4.7826    0.0513 C   0  0
   24.1350   -4.3610    0.4224 N   0  0
   26.2979   -3.9262   -0.2627 N   0  0
   23.4520  -12.0660    0.1017 N   0  0
   24.5972  -10.9841   -0.2935 C   0  0  2  0  0  0
   26.3858  -12.3806    0.7863 O   0  0
   26.1966  -11.3395    0.1478 C   0  0
   24.1954   -9.6041    0.3163 C   0  0
   25.1698   -8.4973   -0.1416 C   0  0
   24.7425   -7.1253    0.4084 C   0  0
   27.3353  -10.5309   -0.1686 N   0  0
   28.8639  -10.8660    0.2495 C   0  0  2  0  0  0
   29.7068   -8.6424   -0.5953 O   0  0
   30.0704   -9.7119   -0.0932 C   0  0
   29.2468  -12.2238   -0.4034 C   0  0
   30.6115  -12.7189    0.1061 C   0  0
   31.0248  -14.2975   -0.6660 S   0  0
   32.6273  -14.8583   -0.0405 C   0  0
   31.4667   -9.8872    0.1736 N   0  0
   32.6449   -8.8087   -0.1268 C   0  0  1  0  0  0
   34.4675  -10.3745    0.5923 O   0  0
   32.3795   -7.5438    0.7111 C   0  0
   34.2510   -9.2400    0.1511 C   0  0
   35.3668   -8.3685   -0.0708 N   0  0
   36.9293   -8.7400    0.2162 C   0  0  2  0  0  0
   37.7286   -6.5220   -0.6741 O   0  0
   38.1105   -7.5712   -0.1433 C   0  0
   37.2571  -10.0452   -0.5704 C   0  0
   38.6073  -10.6315   -0.2149 C   0  0
   39.0188  -11.6235   -0.8267 O   0  0
   39.3409  -10.1399    0.8608 O   0  0
   39.5083   -7.7237    0.1240 N   0  0
   40.6696   -6.6383   -0.2067 C   0  0  2  0  0  0
   42.4399   -8.1310    0.7686 O   0  0
   42.2622   -7.0487    0.1984 C   0  0
   40.2918   -5.3158    0.5245 C   0  0
   41.1772   -4.1465    0.1491 C   0  0
   41.0369   -3.0672    0.7348 O   0  0
   42.0773   -4.2379   -0.9087 O   0  0
   43.3999   -6.2257   -0.0670 N   0  0
   44.9380   -6.5673    0.3078 C   0  0  2  0  0  0
   45.7070   -4.4571   -0.8104 O   0  0
   46.0743   -5.4065   -0.1096 C   0  0
   45.2397   -8.0067   -0.3243 C   0  0
   46.6183   -8.7246   -0.0082 C   0  0
   46.5114  -10.1879   -0.4643 C   0  0
   47.8267   -8.1334   -0.7659 C   0  0
   47.4271   -5.4548    0.2958 N   0  0
   48.5470   -4.3968   -0.0968 C   0  0  2  0  0  0
   50.2957   -5.9906    0.6771 O   0  0
   50.1080   -4.8625    0.2075 C   0  0
   48.2512   -3.0555    0.6427 C   0  0
   49.1467   -1.9103    0.1956 C   0  0
   49.0812   -0.8228    0.7796 O   0  0
   49.9734   -2.0355   -0.9256 N   0  0
   51.2226   -4.0498   -0.0500 N   0  0
   52.7170   -4.4508    0.2144 C   0  0  1  0  0  0
   53.4800   -2.2964   -0.6869 O   0  0
   53.0667   -5.6959   -0.6258 C   0  0
   53.8401   -3.3443   -0.1389 C   0  0
   55.1968   -3.5644    0.1024 N   0  0
   56.3323   -2.5766   -0.2904 C   0  0  2  0  0  0
   57.9770   -4.0713    0.8068 O   0  0
   57.8176   -3.0337    0.1546 C   0  0
   56.0359   -1.1185    0.2485 C   0  0
   57.0800   -0.0883   -0.2835 C   0  0
   56.8007    1.3052    0.1980 C   0  0
   57.6074    2.2118   -0.0451 O   0  0
   55.6324    1.5838    0.9023 N   0  0
   58.9006   -2.2705   -0.1824 N   0  0
   60.3489   -2.4888    0.1662 C   0  0  2  0  0  0
   60.5077   -0.1001    0.0467 O   0  0
   61.0482   -1.1778   -0.2264 C   0  0
   60.9734   -3.7746   -0.5264 C   0  0
   62.9744   -5.2405   -0.7931 C   0  0
   62.4780   -4.1308   -0.2410 C   0  0
   63.3816   -3.2924    0.5897 C   0  0
   64.6618   -3.6373    0.7601 C   0  0
   65.1869   -4.8591    0.1408 C   0  0
   64.3815   -5.6244   -0.5919 C   0  0
   66.5237   -5.2225    0.3202 O   0  0
   62.2410   -1.1695   -0.9479 O   0  0
  -15.4575  -22.4483    1.1108 H   0  0
  -15.1422  -23.1995   -0.4347 H   0  0
  -14.4740  -21.0978   -1.3646 H   0  0
  -16.0997  -19.7584   -0.0017 H   0  0
  -15.0865  -20.0114    1.4401 H   0  0
  -12.3644  -19.2776   -0.5641 H   0  0
  -11.8465  -16.6381   -0.8412 H   0  0
  -13.3746  -14.2794   -0.5121 H   0  0
  -15.6061  -13.4745    0.1120 H   0  0
  -17.4402  -15.1517    0.7950 H   0  0
  -16.9599  -17.5608    0.8286 H   0  0
  -12.0984  -20.1708   -0.9029 H   0  0
  -10.5793  -21.5705    1.2400 H   0  0
   -9.1715  -22.9250   -0.3024 H   0  0
  -10.2143  -22.4518   -1.6646 H   0  0
  -10.8702  -23.4534   -0.3477 H   0  0
   -5.2716  -14.7106   -0.2450 H   0  0
   -8.6836  -13.5550    0.6471 H   0  0
   -8.2926  -11.7616    0.3907 H   0  0
   -6.1526  -11.1846   -0.2636 H   0  0
   -7.8931  -21.2852    0.6065 H   0  0
   -7.1535  -19.2215   -1.3219 H   0  0
   -8.6048  -17.7321    0.0575 H   0  0
   -7.5733  -18.0544    1.4722 H   0  0
   -5.6546  -17.0213    0.3676 H   0  0
   -6.5865  -16.8162   -1.1354 H   0  0
   -8.1595  -15.2977    0.0407 H   0  0
   -7.2424  -15.5115    1.5515 H   0  0
   -4.6703  -18.1649   -0.7869 H   0  0
   -3.0224  -19.3068    1.3956 H   0  0
   -3.5396  -21.4658    0.2741 H   0  0
   -2.8423  -20.8448   -1.2416 H   0  0
   -0.6461  -20.5801   -0.1334 H   0  0
   -1.3389  -21.1725    1.3957 H   0  0
   -2.9802  -23.4476   -0.1115 H   0  0
   -0.4049  -18.7840    1.1269 H   0  0
    0.4317  -17.2341   -1.4135 H   0  0
    0.3932  -15.7810    1.3054 H   0  0
    1.1365  -13.7970    0.0114 H   0  0
    1.2204  -14.7879   -1.4644 H   0  0
    2.3243  -15.1168   -0.1077 H   0  0
   -1.2082  -15.1961   -1.2357 H   0  0
   -1.8758  -15.8861    0.2635 H   0  0
   -2.2907  -13.4398    0.1475 H   0  0
   -0.5411  -13.1477    0.0043 H   0  0
   -1.2085  -13.8374    1.5031 H   0  0
    3.1054  -15.9837   -0.6593 H   0  0
    4.8118  -17.5993    1.2049 H   0  0
    5.0227  -18.2169   -0.4514 H   0  0
    7.6519  -17.3979    0.4921 H   0  0
    8.5144  -15.0440   -1.1695 H   0  0
    9.0545  -13.3712    0.5930 H   0  0
    8.2343  -14.4006    1.7908 H   0  0
    7.3086  -13.6849    0.4498 H   0  0
   11.0799  -13.9766   -0.5039 H   0  0
   12.9028  -15.3122    1.4062 H   0  0
   12.4672  -17.3816    0.1389 H   0  0
   13.1891  -16.6433   -1.3114 H   0  0
   15.3475  -16.4044   -0.1510 H   0  0
   14.6369  -17.0502    1.3481 H   0  0
   12.9640  -18.8226   -1.0147 H   0  0
   14.1572  -20.2327   -1.1658 H   0  0
   15.7462  -15.1114    0.7049 H   0  0
   16.5985  -13.1157   -1.3624 H   0  0
   15.1030  -11.6453   -0.0427 H   0  0
   16.1285  -11.8823    1.3930 H   0  0
   17.0963  -10.4271   -1.1208 H   0  0
   16.5939   -8.3486    0.1594 H   0  0
   15.8844   -9.3297    1.4637 H   0  0
   15.1164   -9.2938   -0.1414 H   0  0
   18.7491   -9.3986    0.4032 H   0  0
   18.9123  -11.1701    0.4532 H   0  0
   18.0838  -10.3150    1.7760 H   0  0
   25.0264  -15.9505    0.3260 H   0  0
   22.8483  -18.7773   -0.6757 H   0  0
   24.1594  -20.0626   -0.4233 H   0  0
   26.2502  -19.3774    0.2852 H   0  0
   19.1924  -12.0156   -0.8927 H   0  0
   20.9166  -13.2393    1.2698 H   0  0
   20.5637  -15.2728   -0.0913 H   0  0
   21.2997  -14.4609   -1.4944 H   0  0
   23.4317  -14.2381   -0.2814 H   0  0
   22.7040  -14.9659    1.1712 H   0  0
   22.3129  -17.0726   -0.0626 H   0  0
   22.9954  -16.3472   -1.5382 H   0  0
   26.6780   -6.4635   -0.3358 H   0  0
   23.3849   -5.0823    0.6713 H   0  0
   23.9056   -3.3165    0.4580 H   0  0
   26.0682   -2.8817   -0.2271 H   0  0
   23.7633  -12.9148    0.6741 H   0  0
   24.5782  -10.8755   -1.3779 H   0  0
   23.1869   -9.3495   -0.0098 H   0  0
   24.2194   -9.6735    1.4038 H   0  0
   26.1707   -8.7309    0.2215 H   0  0
   25.1780   -8.4578   -1.2309 H   0  0
   23.7642   -6.8583    0.0088 H   0  0
   24.6925   -7.1655    1.4965 H   0  0
   27.1626   -9.6338   -0.7256 H   0  0
   28.8705  -11.0203    1.3285 H   0  0
   28.4854  -12.9641   -0.1575 H   0  0
   29.2954  -12.0973   -1.4850 H   0  0
   31.3774  -11.9843   -0.1428 H   0  0
   30.5679  -12.8469    1.1876 H   0  0
   32.8846  -15.8117   -0.5019 H   0  0
   32.5727  -14.9818    1.0411 H   0  0
   33.3914  -14.1198   -0.2833 H   0  0
   31.7624  -10.8171    0.6126 H   0  0
   32.5633   -8.5246   -1.1759 H   0  0
   33.1625   -6.8100    0.5202 H   0  0
   32.3755   -7.8029    1.7699 H   0  0
   31.4124   -7.1221    0.4370 H   0  0
   35.1576   -7.3927   -0.4570 H   0  0
   37.0166   -8.9718    1.2777 H   0  0
   36.4886  -10.7857   -0.3487 H   0  0
   37.2475   -9.8189   -1.6366 H   0  0
   39.5497   -9.1224    0.7069 H   0  0
   39.8168   -8.6387    0.5849 H   0  0
   40.6420   -6.4421   -1.2786 H   0  0
   39.2617   -5.0639    0.2722 H   0  0
   40.3735   -5.4798    1.5990 H   0  0
   42.7624   -5.0110   -0.7200 H   0  0
   43.2181   -5.2941   -0.5609 H   0  0
   44.9831   -6.6805    1.3909 H   0  0
   44.4488   -8.6748    0.0167 H   0  0
   45.1808   -7.8961   -1.4071 H   0  0
   46.8090   -8.6905    1.0645 H   0  0
   47.4492  -10.7031   -0.2568 H   0  0
   46.3081  -10.2214   -1.5346 H   0  0
   45.7009  -10.6787    0.0747 H   0  0
   48.7296   -8.6801   -0.4940 H   0  0
   47.9446   -7.0830   -0.4997 H   0  0
   47.6602   -8.2192   -1.8398 H   0  0
   47.7227   -6.2724    0.9195 H   0  0
   48.4619   -4.2088   -1.1671 H   0  0
   47.2144   -2.7777    0.4533 H   0  0
   48.3967   -3.2109    1.7118 H   0  0
   49.9828   -2.9481   -1.4842 H   0  0
   50.5965   -1.2187   -1.2248 H   0  0
   51.0390   -3.0784   -0.4595 H   0  0
   52.8173   -4.7125    1.2678 H   0  0
   54.1040   -5.9775   -0.4447 H   0  0
   52.9313   -5.4708   -1.6837 H   0  0
   52.4124   -6.5208   -0.3437 H   0  0
   55.4749   -4.4747    0.5911 H   0  0
   56.3343   -2.5159   -1.3787 H   0  0
   55.0413   -0.8156   -0.0789 H   0  0
   56.0727   -1.1294    1.3378 H   0  0
   58.0713   -0.3854    0.0589 H   0  0
   57.0545   -0.0943   -1.3731 H   0  0
   54.9290    0.8026    1.1022 H   0  0
   55.4378    2.5790    1.2435 H   0  0
   58.6912   -1.4028   -0.7723 H   0  0
   60.4272   -2.6091    1.2467 H   0  0
   60.3761   -4.6303   -0.2118 H   0  0
   60.8749   -3.6384   -1.6034 H   0  0
   62.3279   -5.8721   -1.4024 H   0  0
   62.9973   -2.3891    1.0636 H   0  0
   65.3181   -3.0083    1.3616 H   0  0
   64.7650   -6.5387   -1.0447 H   0  0
   67.1463   -4.4646   -0.0546 H   0  0
   62.9819   -1.6793   -0.4060 H   0  0
  4 15  1  0
 19 24  1  0
 27 31  1  0
 34 40  1  0
 43 48  1  0
 51 52  1  0
 56 57  1  0
 60 66  1  0
 69 78  1  0
 81 89  1  0
 92 96  1  0
 99104  1  0
108109  1  0
112117  1  0
120125  1  0
128133  1  0
136141  1  0
145146  1  0
149155  1  0
158167  1  0
  1  2  1  0
  2  4  1  0
  4  3  2  0
  2  5  1  0
  5  7  1  0
  6  7  2  0
  7  9  1  0
  8  6  1  0
 10  8  1  0
  9 10  2  0
 10 11  1  0
 11 12  2  0
 12 13  1  0
 13 14  2  0
 14  9  1  0
 15 16  1  0
 16 19  1  0
 19 17  2  0
 16 18  1  0
 20 21  1  0
 21 22  1  0
 21 23  2  0
 24 25  1  0
 25 27  1  0
 27 26  2  0
 25 28  1  0
 28 29  1  0
 29 30  1  0
 30 20  1  0
 31 32  1  0
 32 34  1  0
 34 33  2  0
 32 35  1  0
 35 36  1  0
 36 37  1  0
 37 38  2  0
 37 39  1  0
 41 40  1  0
 41 43  1  0
 43 42  2  0
 41 44  1  0
 44 45  1  0
 44 46  1  0
 46 47  1  0
 48 49  1  0
 49 51  1  0
 51 50  2  0
 52 53  1  0
 53 56  1  0
 56 54  2  0
 53 55  1  0
 57 58  1  0
 58 60  1  0
 60 59  2  0
 58 61  1  0
 61 62  1  0
 62 63  1  0
 63 64  2  0
 63 65  1  0
 66 67  1  0
 67 69  1  0
 69 68  2  0
 67 70  1  0
 70 71  1  0
 71 72  1  0
 71 73  1  0
 74 75  1  0
 75 76  1  0
 75 77  2  0
 78 79  1  0
 79 81  1  0
 81 80  2  0
 79 82  1  0
 82 83  1  0
 83 84  1  0
 84 74  1  0
 85 86  1  0
 86 87  1  0
 86 88  2  0
 89 90  1  0
 90 92  1  0
 92 91  2  0
 90 93  1  0
 93 94  1  0
 94 95  1  0
 95 85  1  0
 96 97  1  0
 97 99  1  0
 99 98  2  0
 97100  1  0
100101  1  0
101102  1  0
102103  1  0
104105  1  0
105108  1  0
108106  2  0
105107  1  0
109110  1  0
110112  1  0
112111  2  0
110113  1  0
113114  1  0
114115  2  0
114116  1  0
117118  1  0
118120  1  0
120119  2  0
118121  1  0
121122  1  0
122123  2  0
122124  1  0
125126  1  0
126128  1  0
128127  2  0
126129  1  0
129130  1  0
130131  1  0
130132  1  0
133134  1  0
134136  1  0
136135  2  0
134137  1  0
137138  1  0
138139  2  0
138140  1  0
141142  1  0
142145  1  0
145143  2  0
142144  1  0
146147  1  0
147149  1  0
149148  2  0
147150  1  0
150151  1  0
151152  1  0
152153  2  0
152154  1  0
155156  1  0
156158  1  0
158157  2  0
156159  1  0
159161  1  0
160161  2  0
161162  1  0
162163  2  0
163164  1  0
164165  2  0
165160  1  0
164166  1  0
  1168  1  0
  1169  1  0
  2170  1  0
  5171  1  0
  5172  1  0
  6173  1  0
  8174  1  0
 11175  1  0
 12176  1  0
 13177  1  0
 14178  1  0
 15179  1  0
 16180  1  0
 18181  1  0
 18182  1  0
 18183  1  0
 20184  1  0
 22185  1  0
 22186  1  0
 23187  1  0
 24188  1  0
 25189  1  0
 28190  1  0
 28191  1  0
 29192  1  0
 29193  1  0
 30194  1  0
 30195  1  0
 31196  1  0
 32197  1  0
 35198  1  0
 35199  1  0
 36200  1  0
 36201  1  0
 39202  1  0
 40203  1  0
 41204  1  0
 44205  1  0
 45206  1  0
 45207  1  0
 45208  1  0
 46209  1  0
 46210  1  0
 47211  1  0
 47212  1  0
 47213  1  0
 48214  1  0
 49215  1  0
 49216  1  0
 52217  1  0
 53218  1  0
 55219  1  0
 55220  1  0
 55221  1  0
 57222  1  0
 58223  1  0
 61224  1  0
 61225  1  0
 62226  1  0
 62227  1  0
 65228  1  0
 65229  1  0
 66230  1  0
 67231  1  0
 70232  1  0
 70233  1  0
 71234  1  0
 72235  1  0
 72236  1  0
 72237  1  0
 73238  1  0
 73239  1  0
 73240  1  0
 74241  1  0
 76242  1  0
 76243  1  0
 77244  1  0
 78245  1  0
 79246  1  0
 82247  1  0
 82248  1  0
 83249  1  0
 83250  1  0
 84251  1  0
 84252  1  0
 85253  1  0
 87254  1  0
 87255  1  0
 88256  1  0
 89257  1  0
 90258  1  0
 93259  1  0
 93260  1  0
 94261  1  0
 94262  1  0
 95263  1  0
 95264  1  0
 96265  1  0
 97266  1  0
100267  1  0
100268  1  0
101269  1  0
101270  1  0
103271  1  0
103272  1  0
103273  1  0
104274  1  0
105275  1  0
107276  1  0
107277  1  0
107278  1  0
109279  1  0
110280  1  0
113281  1  0
113282  1  0
116283  1  0
117284  1  0
118285  1  0
121286  1  0
121287  1  0
124288  1  0
125289  1  0
126290  1  0
129291  1  0
129292  1  0
130293  1  0
131294  1  0
131295  1  0
131296  1  0
132297  1  0
132298  1  0
132299  1  0
133300  1  0
134301  1  0
137302  1  0
137303  1  0
140304  1  0
140305  1  0
141306  1  0
142307  1  0
144308  1  0
144309  1  0
144310  1  0
146311  1  0
147312  1  0
150313  1  0
150314  1  0
151315  1  0
151316  1  0
154317  1  0
154318  1  0
155319  1  0
156320  1  0
159321  1  0
159322  1  0
160323  1  0
162324  1  0
163325  1  0
165326  1  0
166327  1  0
167328  1  0
M  END
> <Name>
Molecule

> <Clean Energy>
510.626

> <From>
www.bindingDB.org

> <BindingDB Reactant_set_id>
51379929

> <BindingDB MonomerID>
50557902

> <BindingDB Ligand Name>
CHEMBL4790195

> <Target Name>
Tyrosine-protein phosphatase non-receptor type 1

> <Target Source Organism According to Curator or DataSource>
Homo sapiens

> <IC50 (nM)>
6840

> <Curation/DataSource>
ChEMBL

> <Article DOI>
10.1021/acsmedchemlett.1c00174

> <BindingDB Entry DOI>
10.7270/Q2MG7T69

> <PMID>
34141087

> <Authors>
Zhang, C; Wu, L; Liu, X; Gao, J; Liu, S; Wu, J; Huang, D; Wang, Z; Su, X

> <Institution>
Qingdao University of Science and Technology

> <Link to Ligand in BindingDB>
http://www.bindingdb.org/bind/chemsearch/marvin/MolStructure.jsp?monomerid=50557902

> <Link to Ligand-Target Pair in BindingDB>
http://www.bindingdb.org/jsp/dbsearch/PrimarySearch_ki.jsp?energyterm=kJ/mole&tag=pol&polymerid=2622&target=Tyrosine-protein+phosphatase+non-receptor+type+1&column=ki&startPg=0&Increment=50&submit=Sea
rch
http://www.bindingdb.org/jsp/dbsearch/PrimarySearch_ki.jsp?energyterm=kJ/mole&tag=r21&monomerid=50557902&enzyme=Tyrosine-protein+phosphatase+non-receptor+type+1&column=ki&startPg=0&Increment=50&submit
=Search

> <PubChem CID of Ligand>
162668949

> <PubChem SID of Ligand>
461828294

> <Number of Protein Chains in Target (bigger than 1 implies a multichain complex)>
1

> <BindingDB Target Chain Sequence>
MEMEKEFEQIDKSGSWAAIYQDIRHEASDFPCRVAKLPKNKNRNRYRDVSPFDHSRIKLHQEDNDYINASLIKMEEAQRSYILTQGPLPNTCGHFWEMVWEQKSRGVVMLNRVMEKGSLKCAQYWPQKEEKEMIFEDTNLKLTLISEDIKSYYTVRQLELENLTTQETREILHFHYTTWPDFGVPESPASFLNFLFKVRE
SGSLSPEHGPVVVHCSAGIGRSGTFCLADTCLLLMDKRKDPSSVDIKKVLLEMRKFRMGLIQTADQLRFSYLAVIEGAKFIMGDSSVQDQWKELSHEDLEPPPEHIPPPPRPPKRILEPHNGKCREFFPNHQWVKEETQEDKDCPIKEEKGSPLNAAPYGIESMSQDTEVRSRVVGGSLRGAQAASPAKGEPSLPEKDED
HALSYWKPFLVNMCVATVLTAGAYLCYRFLFNSNT

> <PDB ID(s) of Target Chain>
1BZJ,1G7G,1GFY,1JF7,1KAK,1KAV,1LQF,1NL9,1NNY,1NO6,1NZ7,1OEM,1OEO,1OES,1OET,1OEU,1OEV,1ONY,1ONZ,1PH0,1PXH,1PYN,1Q1M,1Q6J,1Q6M,1Q6N,1Q6P,1Q6S,1Q6T,1QXK,1SUG,1T48,1T49,1T4J,1WAX,1XBO,2AZR,2B07,2BGD,2BGE,
2CM2,2CM3,2CM7,2CM8,2CMA,2CMB,2CMC,2CNE,2CNF,2CNG,2CNH,2CNI,2F6T,2F6V,2F6W,2F6Y,2F6Z,2F70,2F71,2FJN,2H4G,2H4K,2HB1,2HNP,2HNQ,2QBP,2QBQ,2QBR,2QBS,2VEU,2VEV,2VEW,2VEX,2VEY,2ZMM,2ZN7,3A5J,3CWE,3D9C,3EAX,
3EB1,3EU0,3I7Z,3I80,3SME,4BJO,4I8N,4QBW,4Y14,5K9V,5K9W,5KA0,5KA1,5T19,6B90,6NTP,6W30,7KEY,7KLX,7LFO,7MN9,7MNA,8DU7,8G65,8G67,8G68,8G69,8G6A,8SKL

> <UniProt (SwissProt) Recommended Name of Target Chain>
Tyrosine-protein phosphatase non-receptor type 1

> <UniProt (SwissProt) Entry Name of Target Chain>
PTN1_HUMAN

> <UniProt (SwissProt) Primary ID of Target Chain>
P18031

> <UniProt (SwissProt) Secondary ID(s) of Target Chain>
Q5TGD8 Q9BQV9 Q9NQQ4

$$$$
Molecule
  SciTegic10242319433D

 64 66  0  0  0  0            999 V2000
   12.4102   -3.0393    0.2230 O   0  0
   11.5816   -0.0196   -0.0617 O   0  0
   10.1754   -2.0296   -0.3717 C   0  0
   10.2737   -0.7286   -0.1473 C   0  0
    7.7721   -2.1201   -0.2196 C   0  0
    8.9203   -2.7603   -0.4190 C   0  0
   12.9775   -0.6865   -0.0255 C   0  0
   13.2981   -2.0155    0.0963 C   0  0
   14.6833   -2.4581    0.1212 C   0  0
   15.6835   -1.6063    0.0449 C   0  0
   15.4085   -0.2080   -0.0585 C   0  0
   14.1571    0.2553   -0.0936 C   0  0
   13.9792    1.7543   -0.1816 C   0  0
   15.4054    2.3820   -0.0919 C   0  0
   15.3924    3.9158   -0.1192 C   0  0
   16.8554    4.4034    0.0067 C   0  0
   16.9054    5.9407   -0.0028 C   0  0
   16.9929   -2.0691    0.0729 O   0  0
    8.9641   -4.1428   -0.6499 O   0  0
    7.6584   -4.7238   -0.6323 C   0  0
    7.8268   -0.6862    0.0284 C   0  0
    8.9707   -0.0331    0.0424 C   0  0
    8.6886    1.3535    0.2616 C   0  0
    7.3144    1.5371    0.3316 O   0  0
    6.6519    0.2509    0.3300 C   0  0  1  0  0  0
    5.4547    0.1162   -0.6488 C   0  0
    4.3547    1.1330   -0.2385 C   0  0
    3.0619    0.8707   -1.0241 C   0  0
    1.9541    1.7949   -0.4821 C   0  0
    9.5273    2.2606    0.2838 O   0  0
    6.1385    0.0164    1.6984 O   0  0
    5.5230   -1.2870    1.9297 C   0  0
   11.8315   -2.8964    1.0874 H   0  0
   11.0967   -2.5896   -0.5316 H   0  0
    6.8207   -2.6514   -0.2412 H   0  0
   14.8987   -3.5234    0.2051 H   0  0
   16.2390    0.4960   -0.1098 H   0  0
   13.5102    2.0217   -1.1285 H   0  0
   13.3608    2.1080    0.6434 H   0  0
   15.9947    2.0254   -0.9367 H   0  0
   15.8695    2.0559    0.8389 H   0  0
   14.9645    4.2662   -1.0585 H   0  0
   14.8018    4.2964    0.7141 H   0  0
   17.2783    4.0353    0.9414 H   0  0
   17.4363    4.0192   -0.8317 H   0  0
   17.9401    6.2717    0.0864 H   0  0
   16.3268    6.3288    0.8355 H   0  0
   16.4848    6.3127   -0.9371 H   0  0
   17.1643   -2.5816    0.9732 H   0  0
    7.7346   -5.7956   -0.8150 H   0  0
    7.0460   -4.2660   -1.4092 H   0  0
    7.1974   -4.5534    0.3406 H   0  0
    5.7873    0.3271   -1.6652 H   0  0
    5.0539   -0.8963   -0.5999 H   0  0
    4.1531    1.0326    0.8280 H   0  0
    4.7038    2.1438   -0.4492 H   0  0
    3.2273    1.0786   -2.0812 H   0  0
    2.7632   -0.1703   -0.9004 H   0  0
    1.0304    1.6175   -1.0328 H   0  0
    2.2557    2.8351   -0.6050 H   0  0
    1.7917    1.5866    0.5755 H   0  0
    5.1828   -1.3505    2.9633 H   0  0
    6.2535   -2.0733    1.7393 H   0  0
    4.6724   -1.4118    1.2595 H   0  0
 14 15  1  0
 15 16  1  0
  4  2  1  0
 16 17  1  0
  7  8  2  0
 10 18  1  0
  3  4  2  0
  6 19  1  0
  8  9  1  0
 19 20  1  0
 21 22  2  0
  4 22  1  0
  9 10  2  0
  1  8  1  0
 10 11  1  0
 21  5  1  0
 22 23  1  0
 23 24  1  0
 24 25  1  0
 25 21  1  0
 11 12  2  0
 25 26  1  0
 12  7  1  0
 26 27  1  0
  7  2  1  0
 27 28  1  0
 12 13  1  0
 28 29  1  0
  5  6  2  0
 23 30  2  0
 13 14  1  0
 25 31  1  0
  6  3  1  0
 31 32  1  0
  1 33  1  0
  3 34  1  0
  5 35  1  0
  9 36  1  0
 11 37  1  0
 13 38  1  0
 13 39  1  0
 14 40  1  0
 14 41  1  0
 15 42  1  0
 15 43  1  0
 16 44  1  0
 16 45  1  0
 17 46  1  0
 17 47  1  0
 17 48  1  0
 18 49  1  0
 20 50  1  0
 20 51  1  0
 20 52  1  0
 26 53  1  0
 26 54  1  0
 27 55  1  0
 27 56  1  0
 28 57  1  0
 28 58  1  0
 29 59  1  0
 29 60  1  0
 29 61  1  0
 32 62  1  0
 32 63  1  0
 32 64  1  0
M  END
> <Name>
Molecule

> <Clean Energy>
57.2801

> <From>
www.bindingDB.org

> <BindingDB Reactant_set_id>
50883743

> <Ligand InChI>
InChI=1S/C25H32O7/c1-5-7-9-10-16-12-17(26)13-20(27)23(16)31-21-15-18(29-3)14-19-22(21)24(28)32-25(19,30-4)11-8-6-2/h12-15,26-27H,5-11H2,1-4H3

> <Ligand InChI Key>
SIFVKFNQJLVAOD-UHFFFAOYSA-N

> <BindingDB MonomerID>
50294525

> <BindingDB Ligand Name>
3-butyl-7-(2,4-dihydroxy-6-pentylphenoxy)-3,5-dimethoxyisobenzofuran-1(3H)-one::CHEMBL550291

> <Target Name>
Tyrosine-protein phosphatase non-receptor type 1

> <Target Source Organism According to Curator or DataSource>
Homo sapiens

> <IC50 (nM)>
6860

> <Curation/DataSource>
ChEMBL

> <Article DOI>
10.1016/j.bmcl.2009.03.108

> <BindingDB Entry DOI>
10.7270/Q20P10ZF

> <PMID>
19362837

> <Authors>
Seo, C; Sohn, JH; Ahn, JS; Yim, JH; Lee, HK; Oh, H

> <Institution>
Silla University

> <Link to Ligand in BindingDB>
http://www.bindingdb.org/bind/chemsearch/marvin/MolStructure.jsp?monomerid=50294525

> <Link to Ligand-Target Pair in BindingDB>
http://www.bindingdb.org/jsp/dbsearch/PrimarySearch_ki.jsp?energyterm=kJ/mole&tag=pol&polymerid=2622&target=Tyrosine-protein+phosphatase+non-receptor+type+1&column=ki&startPg=0&Increment=50&submit=Sea
rch
http://www.bindingdb.org/jsp/dbsearch/PrimarySearch_ki.jsp?energyterm=kJ/mole&tag=r21&monomerid=50294525&enzyme=Tyrosine-protein+phosphatase+non-receptor+type+1&column=ki&startPg=0&Increment=50&submit
=Search

> <PubChem CID of Ligand>
44188089

> <PubChem SID of Ligand>
104136056

> <ChEMBL ID of Ligand>
CHEMBL550291

> <ZINC ID of Ligand>
ZINC43010730

> <Number of Protein Chains in Target (bigger than 1 implies a multichain complex)>
1

> <BindingDB Target Chain Sequence>
MEMEKEFEQIDKSGSWAAIYQDIRHEASDFPCRVAKLPKNKNRNRYRDVSPFDHSRIKLHQEDNDYINASLIKMEEAQRSYILTQGPLPNTCGHFWEMVWEQKSRGVVMLNRVMEKGSLKCAQYWPQKEEKEMIFEDTNLKLTLISEDIKSYYTVRQLELENLTTQETREILHFHYTTWPDFGVPESPASFLNFLFKVRE
SGSLSPEHGPVVVHCSAGIGRSGTFCLADTCLLLMDKRKDPSSVDIKKVLLEMRKFRMGLIQTADQLRFSYLAVIEGAKFIMGDSSVQDQWKELSHEDLEPPPEHIPPPPRPPKRILEPHNGKCREFFPNHQWVKEETQEDKDCPIKEEKGSPLNAAPYGIESMSQDTEVRSRVVGGSLRGAQAASPAKGEPSLPEKDED
HALSYWKPFLVNMCVATVLTAGAYLCYRFLFNSNT

> <PDB ID(s) of Target Chain>
1BZJ,1G7G,1GFY,1JF7,1KAK,1KAV,1LQF,1NL9,1NNY,1NO6,1NZ7,1OEM,1OEO,1OES,1OET,1OEU,1OEV,1ONY,1ONZ,1PH0,1PXH,1PYN,1Q1M,1Q6J,1Q6M,1Q6N,1Q6P,1Q6S,1Q6T,1QXK,1SUG,1T48,1T49,1T4J,1WAX,1XBO,2AZR,2B07,2BGD,2BGE,
2CM2,2CM3,2CM7,2CM8,2CMA,2CMB,2CMC,2CNE,2CNF,2CNG,2CNH,2CNI,2F6T,2F6V,2F6W,2F6Y,2F6Z,2F70,2F71,2FJN,2H4G,2H4K,2HB1,2HNP,2HNQ,2QBP,2QBQ,2QBR,2QBS,2VEU,2VEV,2VEW,2VEX,2VEY,2ZMM,2ZN7,3A5J,3CWE,3D9C,3EAX,
3EB1,3EU0,3I7Z,3I80,3SME,4BJO,4I8N,4QBW,4Y14,5K9V,5K9W,5KA0,5KA1,5T19,6B90,6NTP,6W30,7KEY,7KLX,7LFO,7MN9,7MNA,8DU7,8G65,8G67,8G68,8G69,8G6A,8SKL

> <UniProt (SwissProt) Recommended Name of Target Chain>
Tyrosine-protein phosphatase non-receptor type 1

> <UniProt (SwissProt) Entry Name of Target Chain>
PTN1_HUMAN

> <UniProt (SwissProt) Primary ID of Target Chain>
P18031

> <UniProt (SwissProt) Secondary ID(s) of Target Chain>
Q5TGD8 Q9BQV9 Q9NQQ4

$$$$
Molecule
  SciTegic10242319433D

 97101  0  0  0  0            999 V2000
   32.9194   -8.4391    1.3317 O   0  0
   32.7014   -9.0669   -0.0316 S   0  0
   33.3226   -8.1761   -1.0905 O   0  0
   27.4112    2.8621   -1.2928 O   0  0
   28.0099    2.3341   -0.0036 S   0  0
   27.3938    3.0843    1.1617 O   0  0
   22.0822   -7.5528   -0.3333 C   0  0
   23.5556   -7.4215    0.1311 C   0  0  2  0  0  0
   23.6688   -5.9009   -0.1144 C   0  0  1  0  0  0
   22.4643   -5.4527    0.7658 C   0  0
   21.3995   -6.5018    0.4977 N   0  0
   24.9645   -5.3486    0.2837 O   0  0
   24.4525   -8.3102   -0.6479 O   0  0
   25.2653   -3.9610    0.1187 C   0  0
   25.8695   -8.3496   -0.3379 C   0  0
   26.4667   -3.5481    0.5308 C   0  0
   26.8725   -2.1442    0.4063 C   0  0
   26.0377   -1.2583   -0.1293 C   0  0
   24.7094   -1.7009   -0.5959 C   0  0
   24.3404   -2.9808   -0.4811 C   0  0
   26.6579   -9.1287   -1.0840 C   0  0
   28.1151   -9.1874   -0.8410 C   0  0
   28.6567   -8.4598    0.1350 C   0  0
   27.7981   -7.6222    0.9704 C   0  0
   26.4845   -7.5746    0.7542 C   0  0
   26.4290    0.1622   -0.2502 C   0  0
   27.6233    0.6010    0.1576 C   0  0
   29.6903    2.6050   -0.0007 O   0  0
   29.9243    4.0167   -0.1263 C   0  0
   31.4371    4.3059   -0.1319 C   0  0
   30.1138   -8.4587    0.3703 C   0  0
   30.9547   -9.1969   -0.3556 C   0  0
   33.4682  -10.5819   -0.0955 O   0  0
   34.8708  -10.3869    0.1428 C   0  0
   35.6113  -11.7350    0.0850 C   0  0
   20.0903   -5.9369   -0.0246 C   0  0
   18.8365   -6.8711   -0.0312 C   0  0
   17.6313   -6.3114   -0.1602 C   0  0
   16.3998   -7.1289   -0.1340 C   0  0
   16.4598   -8.4579    0.0108 C   0  0
   17.7979   -9.0734    0.1394 C   0  0
   18.9113   -8.3335    0.1292 C   0  0
   15.2977   -9.3626    0.0721 O   0  0
   13.8870   -8.9419    0.0638 C   0  0
   13.4587   -7.6731    0.0297 C   0  0
   12.0197   -7.3597    0.0647 C   0  0
   11.1190   -8.3378    0.1331 C   0  0
   11.5688   -9.7278    0.1646 C   0  0
   12.8712  -10.0119    0.1315 C   0  0
    9.6407   -8.0151    0.1937 C   0  0
    9.2886   -6.6340   -0.3931 C   0  0
    8.7413   -9.1628   -0.3066 C   0  0
   21.9822   -7.3427   -1.3982 H   0  0
   21.6864   -8.5457   -0.1196 H   0  0
   23.6377   -7.6401    1.1958 H   0  0
   23.4714   -5.6751   -1.1623 H   0  0
   22.7390   -5.4410    1.8205 H   0  0
   22.1158   -4.4633    0.4696 H   0  0
   27.1586   -4.2680    0.9678 H   0  0
   27.8565   -1.8276    0.7522 H   0  0
   24.0234   -0.9783   -1.0379 H   0  0
   23.3581   -3.2994   -0.8300 H   0  0
   26.2211   -9.7289   -1.8821 H   0  0
   28.7459   -9.8255   -1.4598 H   0  0
   28.2357   -7.0325    1.7759 H   0  0
   25.8563   -6.9543    1.3935 H   0  0
   25.7237    0.8711   -0.6840 H   0  0
   28.3507   -0.0905    0.5827 H   0  0
   29.4863    4.3727   -1.0587 H   0  0
   29.4619    4.5345    0.7140 H   0  0
   31.6020    5.3790   -0.2275 H   0  0
   31.9028    3.7909   -0.9721 H   0  0
   31.8784    3.9526    0.8001 H   0  0
   30.5171   -7.8322    1.1658 H   0  0
   30.5809   -9.8657   -1.1308 H   0  0
   35.2762   -9.7204   -0.6185 H   0  0
   35.0102   -9.9415    1.1278 H   0  0
   36.6739  -11.5746    0.2672 H   0  0
   35.4756  -12.1828   -0.8995 H   0  0
   35.2096  -12.4037    0.8463 H   0  0
   19.8445   -5.0697    0.5883 H   0  0
   20.2623   -5.6188   -1.0529 H   0  0
   17.5539   -5.2316   -0.2872 H   0  0
   15.4295   -6.6425   -0.2341 H   0  0
   17.8784  -10.1553    0.2450 H   0  0
   19.8823   -8.8162    0.2405 H   0  0
   14.1846   -6.8618   -0.0247 H   0  0
   11.6905   -6.3210    0.0345 H   0  0
   10.8376  -10.5346    0.2153 H   0  0
   13.1922  -11.0533    0.1549 H   0  0
    9.4178   -7.9305    1.2574 H   0  0
    8.2139   -6.4694   -0.3167 H   0  0
    9.5878   -6.5967   -1.4406 H   0  0
    9.8149   -5.8577    0.1625 H   0  0
    7.6957   -8.8633   -0.2352 H   0  0
    8.9076  -10.0489    0.3061 H   0  0
    8.9838   -9.3889   -1.3450 H   0  0
  2  1  2  0
  3  2  2  0
  5  4  2  0
  6  5  2  0
  7  8  1  0
  8  9  1  0
  9 10  1  0
 10 11  1  0
 11  7  1  0
  9 12  1  0
  8 13  1  0
 12 14  1  0
 13 15  1  0
 14 16  2  0
 16 17  1  0
 17 18  2  0
 18 19  1  0
 19 20  2  0
 20 14  1  0
 15 21  2  0
 21 22  1  0
 22 23  2  0
 23 24  1  0
 24 25  2  0
 25 15  1  0
 18 26  1  0
 26 27  2  0
 27  5  1  0
  5 28  1  0
 28 29  1  0
 29 30  1  0
 23 31  1  0
 31 32  2  0
 32  2  1  0
  2 33  1  0
 33 34  1  0
 34 35  1  0
 11 36  1  0
 36 37  1  0
 37 38  2  0
 38 39  1  0
 39 40  2  0
 40 41  1  0
 41 42  2  0
 42 37  1  0
 40 43  1  0
 43 44  1  0
 44 45  2  0
 45 46  1  0
 46 47  2  0
 47 48  1  0
 48 49  2  0
 49 44  1  0
 47 50  1  0
 50 51  1  0
 50 52  1  0
  7 53  1  0
  7 54  1  0
  8 55  1  0
  9 56  1  0
 10 57  1  0
 10 58  1  0
 16 59  1  0
 17 60  1  0
 19 61  1  0
 20 62  1  0
 21 63  1  0
 22 64  1  0
 24 65  1  0
 25 66  1  0
 26 67  1  0
 27 68  1  0
 29 69  1  0
 29 70  1  0
 30 71  1  0
 30 72  1  0
 30 73  1  0
 31 74  1  0
 32 75  1  0
 34 76  1  0
 34 77  1  0
 35 78  1  0
 35 79  1  0
 35 80  1  0
 36 81  1  0
 36 82  1  0
 38 83  1  0
 39 84  1  0
 41 85  1  0
 42 86  1  0
 45 87  1  0
 46 88  1  0
 48 89  1  0
 49 90  1  0
 50 91  1  0
 51 92  1  0
 51 93  1  0
 51 94  1  0
 52 95  1  0
 52 96  1  0
 52 97  1  0
M  END
> <Name>
Molecule

> <Clean Energy>
54.6966

> <From>
www.bindingDB.org

> <BindingDB Reactant_set_id>
51310224

> <Ligand InChI>
InChI=1S/C40H45NO9S2/c1-5-46-51(42,43)25-23-31-7-15-37(16-8-31)49-39-28-41(27-33-11-19-35(20-12-33)48-36-21-13-34(14-22-36)30(3)4)29-40(39)50-38-17-9-32(10-18-38)24-26-52(44,45)47-6-2/h7-26,30,39-40H,
5-6,27-29H2,1-4H3/b25-23+,26-24+/t39-,40-/m1/s1

> <Ligand InChI Key>
QERBZFMLPNUJRE-BFHDSOAXSA-N

> <BindingDB MonomerID>
50531717

> <BindingDB Ligand Name>
CHEMBL4473317

> <Target Name>
Tyrosine-protein phosphatase non-receptor type 1

> <Target Source Organism According to Curator or DataSource>
Homo sapiens

> <IC50 (nM)>
6870

> <Curation/DataSource>
ChEMBL

> <Article DOI>
10.1016/j.ejmech.2018.12.032

> <BindingDB Entry DOI>
10.7270/Q2KK9G90

> <PMID>
30611982

> <Authors>
Xie, F; Yang, F; Liang, Y; Li, L; Xia, Y; Jiang, F; Liu, W; Qi, Y; Chowdhury, SR; Xie, D; Fu, L

> <Institution>
Shanghai Jiao Tong University (SJTU)

> <Link to Ligand in BindingDB>
http://www.bindingdb.org/bind/chemsearch/marvin/MolStructure.jsp?monomerid=50531717

> <Link to Ligand-Target Pair in BindingDB>
http://www.bindingdb.org/jsp/dbsearch/PrimarySearch_ki.jsp?energyterm=kJ/mole&tag=pol&polymerid=2622&target=Tyrosine-protein+phosphatase+non-receptor+type+1&column=ki&startPg=0&Increment=50&submit=Sea
rch
http://www.bindingdb.org/jsp/dbsearch/PrimarySearch_ki.jsp?energyterm=kJ/mole&tag=r21&monomerid=50531717&enzyme=Tyrosine-protein+phosphatase+non-receptor+type+1&column=ki&startPg=0&Increment=50&submit
=Search

> <PubChem CID of Ligand>
155536292

> <PubChem SID of Ligand>
440740299

> <Number of Protein Chains in Target (bigger than 1 implies a multichain complex)>
1

> <BindingDB Target Chain Sequence>
MEMEKEFEQIDKSGSWAAIYQDIRHEASDFPCRVAKLPKNKNRNRYRDVSPFDHSRIKLHQEDNDYINASLIKMEEAQRSYILTQGPLPNTCGHFWEMVWEQKSRGVVMLNRVMEKGSLKCAQYWPQKEEKEMIFEDTNLKLTLISEDIKSYYTVRQLELENLTTQETREILHFHYTTWPDFGVPESPASFLNFLFKVRE
SGSLSPEHGPVVVHCSAGIGRSGTFCLADTCLLLMDKRKDPSSVDIKKVLLEMRKFRMGLIQTADQLRFSYLAVIEGAKFIMGDSSVQDQWKELSHEDLEPPPEHIPPPPRPPKRILEPHNGKCREFFPNHQWVKEETQEDKDCPIKEEKGSPLNAAPYGIESMSQDTEVRSRVVGGSLRGAQAASPAKGEPSLPEKDED
HALSYWKPFLVNMCVATVLTAGAYLCYRFLFNSNT

> <PDB ID(s) of Target Chain>
1BZJ,1G7G,1GFY,1JF7,1KAK,1KAV,1LQF,1NL9,1NNY,1NO6,1NZ7,1OEM,1OEO,1OES,1OET,1OEU,1OEV,1ONY,1ONZ,1PH0,1PXH,1PYN,1Q1M,1Q6J,1Q6M,1Q6N,1Q6P,1Q6S,1Q6T,1QXK,1SUG,1T48,1T49,1T4J,1WAX,1XBO,2AZR,2B07,2BGD,2BGE,
2CM2,2CM3,2CM7,2CM8,2CMA,2CMB,2CMC,2CNE,2CNF,2CNG,2CNH,2CNI,2F6T,2F6V,2F6W,2F6Y,2F6Z,2F70,2F71,2FJN,2H4G,2H4K,2HB1,2HNP,2HNQ,2QBP,2QBQ,2QBR,2QBS,2VEU,2VEV,2VEW,2VEX,2VEY,2ZMM,2ZN7,3A5J,3CWE,3D9C,3EAX,
3EB1,3EU0,3I7Z,3I80,3SME,4BJO,4I8N,4QBW,4Y14,5K9V,5K9W,5KA0,5KA1,5T19,6B90,6NTP,6W30,7KEY,7KLX,7LFO,7MN9,7MNA,8DU7,8G65,8G67,8G68,8G69,8G6A,8SKL

> <UniProt (SwissProt) Recommended Name of Target Chain>
Tyrosine-protein phosphatase non-receptor type 1

> <UniProt (SwissProt) Entry Name of Target Chain>
PTN1_HUMAN

> <UniProt (SwissProt) Primary ID of Target Chain>
P18031

> <UniProt (SwissProt) Secondary ID(s) of Target Chain>
Q5TGD8 Q9BQV9 Q9NQQ4

$$$$
Molecule
  SciTegic10242319433D

 57 59  0  0  0  0            999 V2000
    4.1737  -20.5825    0.0287 C   0  0
    2.7277  -20.2644    0.0535 C   0  0
    1.8469  -21.2569    0.1459 C   0  0
    2.3249  -22.6508    0.2204 C   0  0
    3.6243  -22.9321    0.1972 C   0  0
    4.5933  -21.8482    0.0953 C   0  0
   -0.4590  -22.1223    0.1293 C   0  0
    0.3851  -21.0434    0.1484 C   0  0
   -0.2934  -19.9630    0.1250 N   0  0
   -1.6196  -20.3137    0.1007 O   0  0
   -1.6958  -21.7006    0.0728 C   0  0
   -5.4890  -22.2516    0.1327 C   0  0
   -5.6746  -23.6693   -0.0818 C   0  0
   -4.6147  -24.4389   -0.2527 C   0  0
   -3.2291  -23.9382   -0.2290 C   0  0
   -3.0319  -22.5678   -0.0157 C   0  0
   -4.2583  -21.7396    0.1669 C   0  0
   -6.9549  -24.2596   -0.1222 O   0  0
   -2.2973  -25.0849   -0.4885 O   0  0
   -7.9930  -23.2950    0.0708 C   0  0
   -0.9319  -24.8891   -0.5451 C   0  0
    0.0220  -26.0227   -0.8988 C   0  0  1  0  0  0
    1.3182  -25.4251   -0.8665 O   0  0
    0.0543  -27.2496    0.0625 C   0  0
   -1.1342  -28.1217   -0.0162 N   0  0
   -0.6072  -29.4798    0.3406 C   0  0
   -2.2391  -27.6602    0.9118 C   0  0
   -3.6546  -28.1516    0.4991 C   0  0
   -1.5433  -30.6597    0.0140 C   0  0
    4.9026  -19.7754   -0.0446 H   0  0
    2.3893  -19.2298   -0.0033 H   0  0
    1.6015  -23.4627    0.2955 H   0  0
    3.9626  -23.9667    0.2540 H   0  0
    5.6601  -22.0708    0.0736 H   0  0
   -0.1489  -23.1669    0.1567 H   0  0
   -6.3541  -21.6021    0.2663 H   0  0
   -4.7740  -25.5041   -0.4206 H   0  0
   -4.1438  -20.6688    0.3357 H   0  0
   -8.9626  -23.7914    0.0325 H   0  0
   -7.9400  -22.5413   -0.7150 H   0  0
   -7.8687  -22.8160    1.0420 H   0  0
   -0.7645  -24.1051   -1.2836 H   0  0
   -0.6319  -24.5313    0.4398 H   0  0
   -0.1893  -26.3662   -1.9115 H   0  0
    1.3619  -24.6446   -1.5676 H   0  0
    0.9323  -27.8484   -0.1798 H   0  0
    0.1373  -26.8790    1.0842 H   0  0
    0.3261  -29.6312   -0.2018 H   0  0
   -0.4113  -29.4931    1.4128 H   0  0
   -2.0247  -28.0340    1.9130 H   0  0
   -2.2443  -26.5703    0.9237 H   0  0
   -4.3908  -27.7803    1.2119 H   0  0
   -3.6738  -29.2415    0.4923 H   0  0
   -3.8933  -27.7782   -0.4968 H   0  0
   -1.0678  -31.5944    0.3111 H   0  0
   -1.7440  -30.6792   -1.0572 H   0  0
   -2.4811  -30.5412    0.5569 H   0  0
 14 15  1  0
  3  4  1  0
 15 16  2  0
  8  9  2  0
 16 17  1  0
 17 12  2  0
 13 18  1  0
  4  5  2  0
 15 19  1  0
 16 11  1  0
  2  3  2  0
 18 20  1  0
  8  3  1  0
  7  8  1  0
 19 21  1  0
  9 10  1  0
 21 22  1  0
 11  7  2  0
 22 23  1  0
  5  6  1  0
 22 24  1  0
  6  1  2  0
 24 25  1  0
 12 13  1  0
 25 26  1  0
 10 11  1  0
 25 27  1  0
 13 14  2  0
 27 28  1  0
  1  2  1  0
 26 29  1  0
  1 30  1  0
  2 31  1  0
  4 32  1  0
  5 33  1  0
  6 34  1  0
  7 35  1  0
 12 36  1  0
 14 37  1  0
 17 38  1  0
 20 39  1  0
 20 40  1  0
 20 41  1  0
 21 42  1  0
 21 43  1  0
 22 44  1  0
 23 45  1  0
 24 46  1  0
 24 47  1  0
 26 48  1  0
 26 49  1  0
 27 50  1  0
 27 51  1  0
 28 52  1  0
 28 53  1  0
 28 54  1  0
 29 55  1  0
 29 56  1  0
 29 57  1  0
M  END
> <Name>
Molecule

> <Clean Energy>
65.7533

> <From>
www.bindingDB.org

> <BindingDB Reactant_set_id>
50644724

> <Ligand InChI>
InChI=1S/C23H28N2O4/c1-4-25(5-2)15-18(26)16-28-22-13-19(27-3)11-12-20(22)23-14-21(24-29-23)17-9-7-6-8-10-17/h6-14,18,26H,4-5,15-16H2,1-3H3

> <Ligand InChI Key>
MVLHECKIGUCGIK-UHFFFAOYSA-N

> <BindingDB MonomerID>
50346163

> <BindingDB Ligand Name>
1-(diethylamino)-3-(5-methoxy-2-(3-phenylisoxazol-5-yl)phenoxy)propan-2-ol::CHEMBL1783788

> <Target Name>
Tyrosine-protein phosphatase non-receptor type 1

> <Target Source Organism According to Curator or DataSource>
Homo sapiens

> <IC50 (nM)>
6890

> <Curation/DataSource>
ChEMBL

> <Article DOI>
10.1016/j.bmc.2009.05.033

> <BindingDB Entry DOI>
10.7270/Q2J966QV

> <PMID>
19500993

> <Authors>
Kumar, A; Maurya, RA; Sharma, S; Ahmad, P; Singh, AB; Tamrakar, AK; Srivastava, AK

> <Institution>
Central Drug Research Institute

> <Link to Ligand in BindingDB>
http://www.bindingdb.org/bind/chemsearch/marvin/MolStructure.jsp?monomerid=50346163

> <Link to Ligand-Target Pair in BindingDB>
http://www.bindingdb.org/jsp/dbsearch/PrimarySearch_ki.jsp?energyterm=kJ/mole&tag=pol&polymerid=2622&target=Tyrosine-protein+phosphatase+non-receptor+type+1&column=ki&startPg=0&Increment=50&submit=Sea
rch
http://www.bindingdb.org/jsp/dbsearch/PrimarySearch_ki.jsp?energyterm=kJ/mole&tag=r21&monomerid=50346163&enzyme=Tyrosine-protein+phosphatase+non-receptor+type+1&column=ki&startPg=0&Increment=50&submit
=Search

> <PubChem CID of Ligand>
54582457

> <PubChem SID of Ligand>
131349094

> <ChEMBL ID of Ligand>
CHEMBL1783788

> <ZINC ID of Ligand>
ZINC71295596

> <Number of Protein Chains in Target (bigger than 1 implies a multichain complex)>
1

> <BindingDB Target Chain Sequence>
MEMEKEFEQIDKSGSWAAIYQDIRHEASDFPCRVAKLPKNKNRNRYRDVSPFDHSRIKLHQEDNDYINASLIKMEEAQRSYILTQGPLPNTCGHFWEMVWEQKSRGVVMLNRVMEKGSLKCAQYWPQKEEKEMIFEDTNLKLTLISEDIKSYYTVRQLELENLTTQETREILHFHYTTWPDFGVPESPASFLNFLFKVRE
SGSLSPEHGPVVVHCSAGIGRSGTFCLADTCLLLMDKRKDPSSVDIKKVLLEMRKFRMGLIQTADQLRFSYLAVIEGAKFIMGDSSVQDQWKELSHEDLEPPPEHIPPPPRPPKRILEPHNGKCREFFPNHQWVKEETQEDKDCPIKEEKGSPLNAAPYGIESMSQDTEVRSRVVGGSLRGAQAASPAKGEPSLPEKDED
HALSYWKPFLVNMCVATVLTAGAYLCYRFLFNSNT

> <PDB ID(s) of Target Chain>
1BZJ,1G7G,1GFY,1JF7,1KAK,1KAV,1LQF,1NL9,1NNY,1NO6,1NZ7,1OEM,1OEO,1OES,1OET,1OEU,1OEV,1ONY,1ONZ,1PH0,1PXH,1PYN,1Q1M,1Q6J,1Q6M,1Q6N,1Q6P,1Q6S,1Q6T,1QXK,1SUG,1T48,1T49,1T4J,1WAX,1XBO,2AZR,2B07,2BGD,2BGE,
2CM2,2CM3,2CM7,2CM8,2CMA,2CMB,2CMC,2CNE,2CNF,2CNG,2CNH,2CNI,2F6T,2F6V,2F6W,2F6Y,2F6Z,2F70,2F71,2FJN,2H4G,2H4K,2HB1,2HNP,2HNQ,2QBP,2QBQ,2QBR,2QBS,2VEU,2VEV,2VEW,2VEX,2VEY,2ZMM,2ZN7,3A5J,3CWE,3D9C,3EAX,
3EB1,3EU0,3I7Z,3I80,3SME,4BJO,4I8N,4QBW,4Y14,5K9V,5K9W,5KA0,5KA1,5T19,6B90,6NTP,6W30,7KEY,7KLX,7LFO,7MN9,7MNA,8DU7,8G65,8G67,8G68,8G69,8G6A,8SKL

> <UniProt (SwissProt) Recommended Name of Target Chain>
Tyrosine-protein phosphatase non-receptor type 1

> <UniProt (SwissProt) Entry Name of Target Chain>
PTN1_HUMAN

> <UniProt (SwissProt) Primary ID of Target Chain>
P18031

> <UniProt (SwissProt) Secondary ID(s) of Target Chain>
Q5TGD8 Q9BQV9 Q9NQQ4

$$$$
Molecule
  SciTegic10242319433D

 54 55  0  0  0  0            999 V2000
   25.9455  -11.8378   -0.0162 C   0  0
   26.0632  -13.1602   -0.0280 C   0  0
   27.3741  -13.8277   -0.0546 C   0  0
   28.4882  -13.0348   -0.0835 C   0  0
   28.3320  -11.5660   -0.0682 C   0  0
   27.1253  -11.0042   -0.0360 C   0  0
   26.9723   -9.5073   -0.0184 C   0  0
   28.3171   -8.8437   -0.0308 C   0  0
   28.3999   -7.5152   -0.0060 C   0  0
   29.8557  -13.5584   -0.1326 C   0  0
   30.9635  -12.8318   -0.1313 C   0  0
   32.2011  -13.6053   -0.1626 C   0  0
   33.4980  -12.9672   -0.1077 C   0  0
   32.1359  -14.8389   -0.2032 O   0  0
   34.5952  -13.7216   -0.0894 C   0  0
   35.9127  -13.0962   -0.0275 C   0  0
   36.0132  -11.7694    0.0096 C   0  0
   34.8014  -10.9405   -0.0122 C   0  0
   33.6026  -11.5168   -0.0673 C   0  0
   27.2700  -15.3201   -0.0604 O   0  0
   24.6828  -11.2549    0.0147 O   0  0
   28.4074  -16.2433    0.0342 C   0  0
   34.9035   -9.5464    0.0222 N   0  0
   36.1938   -8.9210    0.0763 C   0  0
   33.7166   -8.7363   -0.0038 C   0  0
   27.9392  -17.6623   -0.3209 C   0  0
   28.9491  -16.2804    1.4923 C   0  0
   25.1602  -13.7705   -0.0177 H   0  0
   29.2186  -10.9321   -0.0835 H   0  0
   26.4091   -9.1937   -0.8974 H   0  0
   26.4346   -9.2120    0.8826 H   0  0
   29.2243   -9.4473   -0.0601 H   0  0
   27.4918   -6.9131    0.0233 H   0  0
   29.3757   -7.0297   -0.0149 H   0  0
   29.9720  -14.6414   -0.1738 H   0  0
   30.9517  -11.7421   -0.1087 H   0  0
   34.5094  -14.8078   -0.1206 H   0  0
   36.8110  -13.7135   -0.0119 H   0  0
   36.9950  -11.2983    0.0563 H   0  0
   32.7017  -10.9034   -0.0820 H   0  0
   24.1391  -11.5512   -0.8333 H   0  0
   29.1978  -15.9308   -0.6483 H   0  0
   36.0727   -7.8380    0.0967 H   0  0
   36.7728   -9.2048   -0.8026 H   0  0
   36.7175   -9.2446    0.9758 H   0  0
   33.9944   -7.6829    0.0295 H   0  0
   33.0943   -8.9749    0.8587 H   0  0
   33.1598   -8.9359   -0.9194 H   0  0
   28.7811  -18.3511   -0.2519 H   0  0
   27.5451  -17.6717   -1.3371 H   0  0
   27.1587  -17.9724    0.3740 H   0  0
   29.7924  -16.9685    1.5497 H   0  0
   28.1601  -16.6165    2.1651 H   0  0
   29.2747  -15.2822    1.7849 H   0  0
  1  2  2  0
  2  3  1  0
  3  4  2  0
  4  5  1  0
  5  6  2  0
  6  1  1  0
  6  7  1  0
  7  8  1  0
  8  9  2  0
  4 10  1  0
 10 11  2  0
 11 12  1  0
 12 13  1  0
 12 14  2  0
 13 15  2  0
 15 16  1  0
 16 17  2  0
 17 18  1  0
 18 19  2  0
 19 13  1  0
  3 20  1  0
  1 21  1  0
 20 22  1  0
 18 23  1  0
 23 24  1  0
 23 25  1  0
 22 26  1  0
 22 27  1  0
  2 28  1  0
  5 29  1  0
  7 30  1  0
  7 31  1  0
  8 32  1  0
  9 33  1  0
  9 34  1  0
 10 35  1  0
 11 36  1  0
 15 37  1  0
 16 38  1  0
 17 39  1  0
 19 40  1  0
 21 41  1  0
 22 42  1  0
 24 43  1  0
 24 44  1  0
 24 45  1  0
 25 46  1  0
 25 47  1  0
 25 48  1  0
 26 49  1  0
 26 50  1  0
 26 51  1  0
 27 52  1  0
 27 53  1  0
 27 54  1  0
M  END
> <Name>
Molecule

> <Clean Energy>
12.0242

> <From>
www.bindingDB.org

> <BindingDB Reactant_set_id>
51311291

> <Ligand InChI>
InChI=1S/C23H27NO3/c1-6-8-17-13-19(23(15-22(17)26)27-16(2)3)11-12-21(25)18-9-7-10-20(14-18)24(4)5/h6-7,9-16,26H,1,8H2,2-5H3/b12-11+

> <Ligand InChI Key>
NBETVLLUEWJOCX-VAWYXSNFSA-N

> <BindingDB MonomerID>
50532118

> <BindingDB Ligand Name>
CHEMBL4472239

> <Target Name>
Tyrosine-protein phosphatase non-receptor type 1

> <Target Source Organism According to Curator or DataSource>
Homo sapiens

> <IC50 (nM)>
6900

> <Curation/DataSource>
ChEMBL

> <Article DOI>
10.1016/j.bmc.2019.01.034

> <BindingDB Entry DOI>
10.7270/Q2KD22CJ

> <PMID>
30737132

> <Authors>
Zhao, Y; Cao, Y; Chen, H; Zhuang, F; Wu, C; Yoon, G; Zhu, W; Su, Y; Zheng, S; Liu, Z; Cheon, SH

> <Institution>
Wenzhou Medical University

> <Link to Ligand in BindingDB>
http://www.bindingdb.org/bind/chemsearch/marvin/MolStructure.jsp?monomerid=50532118

> <Link to Ligand-Target Pair in BindingDB>
http://www.bindingdb.org/jsp/dbsearch/PrimarySearch_ki.jsp?energyterm=kJ/mole&tag=pol&polymerid=2622&target=Tyrosine-protein+phosphatase+non-receptor+type+1&column=ki&startPg=0&Increment=50&submit=Sea
rch
http://www.bindingdb.org/jsp/dbsearch/PrimarySearch_ki.jsp?energyterm=kJ/mole&tag=r21&monomerid=50532118&enzyme=Tyrosine-protein+phosphatase+non-receptor+type+1&column=ki&startPg=0&Increment=50&submit
=Search

> <PubChem CID of Ligand>
141746842

> <PubChem SID of Ligand>
440740700

> <Number of Protein Chains in Target (bigger than 1 implies a multichain complex)>
1

> <BindingDB Target Chain Sequence>
MEMEKEFEQIDKSGSWAAIYQDIRHEASDFPCRVAKLPKNKNRNRYRDVSPFDHSRIKLHQEDNDYINASLIKMEEAQRSYILTQGPLPNTCGHFWEMVWEQKSRGVVMLNRVMEKGSLKCAQYWPQKEEKEMIFEDTNLKLTLISEDIKSYYTVRQLELENLTTQETREILHFHYTTWPDFGVPESPASFLNFLFKVRE
SGSLSPEHGPVVVHCSAGIGRSGTFCLADTCLLLMDKRKDPSSVDIKKVLLEMRKFRMGLIQTADQLRFSYLAVIEGAKFIMGDSSVQDQWKELSHEDLEPPPEHIPPPPRPPKRILEPHNGKCREFFPNHQWVKEETQEDKDCPIKEEKGSPLNAAPYGIESMSQDTEVRSRVVGGSLRGAQAASPAKGEPSLPEKDED
HALSYWKPFLVNMCVATVLTAGAYLCYRFLFNSNT

> <PDB ID(s) of Target Chain>
1BZJ,1G7G,1GFY,1JF7,1KAK,1KAV,1LQF,1NL9,1NNY,1NO6,1NZ7,1OEM,1OEO,1OES,1OET,1OEU,1OEV,1ONY,1ONZ,1PH0,1PXH,1PYN,1Q1M,1Q6J,1Q6M,1Q6N,1Q6P,1Q6S,1Q6T,1QXK,1SUG,1T48,1T49,1T4J,1WAX,1XBO,2AZR,2B07,2BGD,2BGE,
2CM2,2CM3,2CM7,2CM8,2CMA,2CMB,2CMC,2CNE,2CNF,2CNG,2CNH,2CNI,2F6T,2F6V,2F6W,2F6Y,2F6Z,2F70,2F71,2FJN,2H4G,2H4K,2HB1,2HNP,2HNQ,2QBP,2QBQ,2QBR,2QBS,2VEU,2VEV,2VEW,2VEX,2VEY,2ZMM,2ZN7,3A5J,3CWE,3D9C,3EAX,
3EB1,3EU0,3I7Z,3I80,3SME,4BJO,4I8N,4QBW,4Y14,5K9V,5K9W,5KA0,5KA1,5T19,6B90,6NTP,6W30,7KEY,7KLX,7LFO,7MN9,7MNA,8DU7,8G65,8G67,8G68,8G69,8G6A,8SKL

> <UniProt (SwissProt) Recommended Name of Target Chain>
Tyrosine-protein phosphatase non-receptor type 1

> <UniProt (SwissProt) Entry Name of Target Chain>
PTN1_HUMAN

> <UniProt (SwissProt) Primary ID of Target Chain>
P18031

> <UniProt (SwissProt) Secondary ID(s) of Target Chain>
Q5TGD8 Q9BQV9 Q9NQQ4

$$$$
Molecule
  SciTegic10242319433D

 55 57  0  0  0  0            999 V2000
   31.0831  -26.6073    0.0019 C   0  0
   31.1891  -27.9285    0.0017 C   0  0
   32.4904  -28.6090   -0.0031 C   0  0
   33.6198  -27.8336   -0.0052 C   0  0
   33.4722  -26.3562   -0.0050 C   0  0
   32.2669  -25.7854   -0.0009 C   0  0
   32.1102  -24.2880    0.0001 C   0  0
   33.4432  -23.6073   -0.0019 C   0  0
   33.5007  -22.2771   -0.0006 C   0  0
   35.0050  -28.3693   -0.0106 C   0  0
   36.1082  -27.6242   -0.0110 C   0  0
   37.3829  -28.3567   -0.0158 C   0  0
   38.6754  -27.6720   -0.0044 C   0  0
   37.3609  -29.5924   -0.0231 O   0  0
   39.7918  -28.3997   -0.0017 C   0  0
   41.0991  -27.7465    0.0153 C   0  0
   41.1781  -26.4172    0.0278 C   0  0
   39.9460  -25.6131    0.0225 C   0  0
   38.7544  -26.2114    0.0075 C   0  0
   32.3589  -30.0866   -0.0020 O   0  0
   29.8252  -26.0138    0.0056 O   0  0
   33.4884  -30.9893   -0.0050 C   0  0
   42.4334  -25.7852    0.0513 N   0  0
   43.6366  -26.6095    0.1591 C   0  0
   44.9136  -25.8935   -0.3240 C   0  0
   44.9873  -24.4919    0.2738 C   0  0
   43.8105  -23.7239   -0.3197 C   0  0
   42.4813  -24.3325    0.1660 C   0  0
   30.2801  -28.5299    0.0053 H   0  0
   34.3631  -25.7282   -0.0083 H   0  0
   31.5558  -23.9875   -0.8890 H   0  0
   31.5588  -23.9884    0.8913 H   0  0
   34.3603  -24.1964   -0.0044 H   0  0
   32.5811  -21.6918    0.0019 H   0  0
   34.4673  -21.7734   -0.0020 H   0  0
   35.1274  -29.4524   -0.0145 H   0  0
   36.0687  -26.5349   -0.0080 H   0  0
   39.7296  -29.4879   -0.0123 H   0  0
   42.0088  -28.3470    0.0179 H   0  0
   40.0075  -24.5249    0.0310 H   0  0
   37.8425  -25.6142    0.0040 H   0  0
   29.2945  -26.3119   -0.8499 H   0  0
   33.1311  -32.0191   -0.0034 H   0  0
   34.0961  -30.8148    0.8829 H   0  0
   34.0906  -30.8156   -0.8968 H   0  0
   43.7715  -26.8891    1.2039 H   0  0
   43.4953  -27.5074   -0.4425 H   0  0
   45.7874  -26.4650   -0.0111 H   0  0
   44.8965  -25.8210   -1.4114 H   0  0
   44.9016  -24.5376    1.3595 H   0  0
   45.9282  -24.0130    0.0029 H   0  0
   43.8655  -22.6816   -0.0058 H   0  0
   43.8560  -23.7792   -1.4074 H   0  0
   41.6710  -23.9122   -0.4296 H   0  0
   42.3406  -24.0639    1.2129 H   0  0
  1  2  2  0
  2  3  1  0
  3  4  2  0
  4  5  1  0
  5  6  2  0
  6  1  1  0
  6  7  1  0
  7  8  1  0
  8  9  2  0
  4 10  1  0
 10 11  2  0
 11 12  1  0
 12 13  1  0
 12 14  2  0
 13 15  2  0
 15 16  1  0
 16 17  2  0
 17 18  1  0
 18 19  2  0
 19 13  1  0
  3 20  1  0
  1 21  1  0
 20 22  1  0
 17 23  1  0
 23 24  1  0
 23 28  1  0
 24 25  1  0
 25 26  1  0
 26 27  1  0
 27 28  1  0
  2 29  1  0
  5 30  1  0
  7 31  1  0
  7 32  1  0
  8 33  1  0
  9 34  1  0
  9 35  1  0
 10 36  1  0
 11 37  1  0
 15 38  1  0
 16 39  1  0
 18 40  1  0
 19 41  1  0
 21 42  1  0
 22 43  1  0
 22 44  1  0
 22 45  1  0
 24 46  1  0
 24 47  1  0
 25 48  1  0
 25 49  1  0
 26 50  1  0
 26 51  1  0
 27 52  1  0
 27 53  1  0
 28 54  1  0
 28 55  1  0
M  END
> <Name>
Molecule

> <Clean Energy>
14.0443

> <From>
www.bindingDB.org

> <BindingDB Reactant_set_id>
51311296

> <Ligand InChI>
InChI=1S/C24H27NO3/c1-3-7-19-16-20(24(28-2)17-23(19)27)10-13-22(26)18-8-11-21(12-9-18)25-14-5-4-6-15-25/h3,8-13,16-17,27H,1,4-7,14-15H2,2H3/b13-10+

> <Ligand InChI Key>
LUQQXTNQRMNIPI-JLHYYAGUSA-N

> <BindingDB MonomerID>
50532123

> <BindingDB Ligand Name>
CHEMBL4448672

> <Target Name>
Tyrosine-protein phosphatase non-receptor type 1

> <Target Source Organism According to Curator or DataSource>
Homo sapiens

> <IC50 (nM)>
6900

> <Curation/DataSource>
ChEMBL

> <Article DOI>
10.1016/j.bmc.2019.01.034

> <BindingDB Entry DOI>
10.7270/Q2KD22CJ

> <PMID>
30737132

> <Authors>
Zhao, Y; Cao, Y; Chen, H; Zhuang, F; Wu, C; Yoon, G; Zhu, W; Su, Y; Zheng, S; Liu, Z; Cheon, SH

> <Institution>
Wenzhou Medical University

> <Link to Ligand in BindingDB>
http://www.bindingdb.org/bind/chemsearch/marvin/MolStructure.jsp?monomerid=50532123

> <Link to Ligand-Target Pair in BindingDB>
http://www.bindingdb.org/jsp/dbsearch/PrimarySearch_ki.jsp?energyterm=kJ/mole&tag=pol&polymerid=2622&target=Tyrosine-protein+phosphatase+non-receptor+type+1&column=ki&startPg=0&Increment=50&submit=Sea
rch
http://www.bindingdb.org/jsp/dbsearch/PrimarySearch_ki.jsp?energyterm=kJ/mole&tag=r21&monomerid=50532123&enzyme=Tyrosine-protein+phosphatase+non-receptor+type+1&column=ki&startPg=0&Increment=50&submit
=Search

> <PubChem CID of Ligand>
141746831

> <PubChem SID of Ligand>
440740705

> <Number of Protein Chains in Target (bigger than 1 implies a multichain complex)>
1

> <BindingDB Target Chain Sequence>
MEMEKEFEQIDKSGSWAAIYQDIRHEASDFPCRVAKLPKNKNRNRYRDVSPFDHSRIKLHQEDNDYINASLIKMEEAQRSYILTQGPLPNTCGHFWEMVWEQKSRGVVMLNRVMEKGSLKCAQYWPQKEEKEMIFEDTNLKLTLISEDIKSYYTVRQLELENLTTQETREILHFHYTTWPDFGVPESPASFLNFLFKVRE
SGSLSPEHGPVVVHCSAGIGRSGTFCLADTCLLLMDKRKDPSSVDIKKVLLEMRKFRMGLIQTADQLRFSYLAVIEGAKFIMGDSSVQDQWKELSHEDLEPPPEHIPPPPRPPKRILEPHNGKCREFFPNHQWVKEETQEDKDCPIKEEKGSPLNAAPYGIESMSQDTEVRSRVVGGSLRGAQAASPAKGEPSLPEKDED
HALSYWKPFLVNMCVATVLTAGAYLCYRFLFNSNT

> <PDB ID(s) of Target Chain>
1BZJ,1G7G,1GFY,1JF7,1KAK,1KAV,1LQF,1NL9,1NNY,1NO6,1NZ7,1OEM,1OEO,1OES,1OET,1OEU,1OEV,1ONY,1ONZ,1PH0,1PXH,1PYN,1Q1M,1Q6J,1Q6M,1Q6N,1Q6P,1Q6S,1Q6T,1QXK,1SUG,1T48,1T49,1T4J,1WAX,1XBO,2AZR,2B07,2BGD,2BGE,
2CM2,2CM3,2CM7,2CM8,2CMA,2CMB,2CMC,2CNE,2CNF,2CNG,2CNH,2CNI,2F6T,2F6V,2F6W,2F6Y,2F6Z,2F70,2F71,2FJN,2H4G,2H4K,2HB1,2HNP,2HNQ,2QBP,2QBQ,2QBR,2QBS,2VEU,2VEV,2VEW,2VEX,2VEY,2ZMM,2ZN7,3A5J,3CWE,3D9C,3EAX,
3EB1,3EU0,3I7Z,3I80,3SME,4BJO,4I8N,4QBW,4Y14,5K9V,5K9W,5KA0,5KA1,5T19,6B90,6NTP,6W30,7KEY,7KLX,7LFO,7MN9,7MNA,8DU7,8G65,8G67,8G68,8G69,8G6A,8SKL

> <UniProt (SwissProt) Recommended Name of Target Chain>
Tyrosine-protein phosphatase non-receptor type 1

> <UniProt (SwissProt) Entry Name of Target Chain>
PTN1_HUMAN

> <UniProt (SwissProt) Primary ID of Target Chain>
P18031

> <UniProt (SwissProt) Secondary ID(s) of Target Chain>
Q5TGD8 Q9BQV9 Q9NQQ4

$$$$
Molecule
  SciTegic10242319433D

 48 49  0  0  0  0            999 V2000
   36.1075   -4.4625   -0.0003 C   0  0
   36.1913   -5.7854    0.0001 C   0  0
   37.4809   -6.4873   -0.0013 C   0  0
   38.6217   -5.7299    0.0008 C   0  0
   38.4997   -4.2511   -0.0002 C   0  0
   37.3048   -3.6600    0.0004 C   0  0
   37.1744   -2.1599    0.0004 C   0  0
   38.5195   -1.5025    0.0003 C   0  0
   38.6007   -0.1735    0.0003 C   0  0
   39.9943   -6.2854   -0.0003 C   0  0
   41.1044   -5.5532    0.0000 C   0  0
   42.3668   -6.2983    0.0001 C   0  0
   43.6613   -5.6265    0.0000 C   0  0
   42.3323   -7.5336    0.0000 O   0  0
   44.7704   -6.3641    0.0000 C   0  0
   46.0810   -5.7226   -0.0001 C   0  0
   46.1714   -4.3941   -0.0002 C   0  0
   44.9475   -3.5782   -0.0002 C   0  0
   43.7513   -4.1665   -0.0001 C   0  0
   37.3270   -7.9632   -0.0003 O   0  0
   34.8601   -3.8482    0.0000 O   0  0
   38.4430   -8.8840   -0.0007 C   0  0
   47.4323   -3.7769   -0.0003 N   0  0
   48.6288   -4.5751   -0.0003 C   0  0
   47.5325   -2.3452   -0.0004 C   0  0
   35.2724   -6.3716    0.0016 H   0  0
   39.4013   -3.6384   -0.0015 H   0  0
   36.6268   -1.8502   -0.8897 H   0  0
   36.6269   -1.8502    0.8906 H   0  0
   39.4261   -2.1077    0.0003 H   0  0
   37.6917    0.4280    0.0004 H   0  0
   39.5761    0.3130    0.0003 H   0  0
   40.1022   -7.3701   -0.0015 H   0  0
   41.0772   -4.4635    0.0002 H   0  0
   44.6986   -7.4518    0.0000 H   0  0
   46.9857   -6.3307   -0.0001 H   0  0
   45.0188   -2.4905   -0.0002 H   0  0
   42.8441   -3.5622   -0.0001 H   0  0
   34.3267   -4.1376   -0.8569 H   0  0
   38.0698   -9.9080    0.0002 H   0  0
   39.0513   -8.7187    0.8885 H   0  0
   39.0498   -8.7198   -0.8912 H   0  0
   49.5017   -3.9223   -0.0003 H   0  0
   48.6463   -5.2044   -0.8901 H   0  0
   48.6464   -5.2043    0.8896 H   0  0
   48.5828   -2.0540   -0.0004 H   0  0
   47.0454   -1.9464    0.8895 H   0  0
   47.0454   -1.9465   -0.8902 H   0  0
  1  2  2  0
  2  3  1  0
  3  4  2  0
  4  5  1  0
  5  6  2  0
  6  1  1  0
  6  7  1  0
  7  8  1  0
  8  9  2  0
  4 10  1  0
 10 11  2  0
 11 12  1  0
 12 13  1  0
 12 14  2  0
 13 15  2  0
 15 16  1  0
 16 17  2  0
 17 18  1  0
 18 19  2  0
 19 13  1  0
  3 20  1  0
  1 21  1  0
 20 22  1  0
 17 23  1  0
 23 24  1  0
 23 25  1  0
  2 26  1  0
  5 27  1  0
  7 28  1  0
  7 29  1  0
  8 30  1  0
  9 31  1  0
  9 32  1  0
 10 33  1  0
 11 34  1  0
 15 35  1  0
 16 36  1  0
 18 37  1  0
 19 38  1  0
 21 39  1  0
 22 40  1  0
 22 41  1  0
 22 42  1  0
 24 43  1  0
 24 44  1  0
 24 45  1  0
 25 46  1  0
 25 47  1  0
 25 48  1  0
M  END
> <Name>
Molecule

> <Clean Energy>
9.59878

> <From>
www.bindingDB.org

> <BindingDB Reactant_set_id>
51311307

> <Ligand InChI>
InChI=1S/C21H23NO3/c1-5-6-16-13-17(21(25-4)14-20(16)24)9-12-19(23)15-7-10-18(11-8-15)22(2)3/h5,7-14,24H,1,6H2,2-4H3/b12-9+

> <Ligand InChI Key>
KPXLLYLKKFKDCO-FMIVXFBMSA-N

> <BindingDB MonomerID>
50532134

> <BindingDB Ligand Name>
CHEMBL4471595

> <Target Name>
Tyrosine-protein phosphatase non-receptor type 1

> <Target Source Organism According to Curator or DataSource>
Homo sapiens

> <IC50 (nM)>
6900

> <Curation/DataSource>
ChEMBL

> <Article DOI>
10.1016/j.bmc.2019.01.034

> <BindingDB Entry DOI>
10.7270/Q2KD22CJ

> <PMID>
30737132

> <Authors>
Zhao, Y; Cao, Y; Chen, H; Zhuang, F; Wu, C; Yoon, G; Zhu, W; Su, Y; Zheng, S; Liu, Z; Cheon, SH

> <Institution>
Wenzhou Medical University

> <Link to Ligand in BindingDB>
http://www.bindingdb.org/bind/chemsearch/marvin/MolStructure.jsp?monomerid=50532134

> <Link to Ligand-Target Pair in BindingDB>
http://www.bindingdb.org/jsp/dbsearch/PrimarySearch_ki.jsp?energyterm=kJ/mole&tag=pol&polymerid=2622&target=Tyrosine-protein+phosphatase+non-receptor+type+1&column=ki&startPg=0&Increment=50&submit=Sea
rch
http://www.bindingdb.org/jsp/dbsearch/PrimarySearch_ki.jsp?energyterm=kJ/mole&tag=r21&monomerid=50532134&enzyme=Tyrosine-protein+phosphatase+non-receptor+type+1&column=ki&startPg=0&Increment=50&submit
=Search

> <PubChem CID of Ligand>
141746846

> <PubChem SID of Ligand>
440740716

> <Number of Protein Chains in Target (bigger than 1 implies a multichain complex)>
1

> <BindingDB Target Chain Sequence>
MEMEKEFEQIDKSGSWAAIYQDIRHEASDFPCRVAKLPKNKNRNRYRDVSPFDHSRIKLHQEDNDYINASLIKMEEAQRSYILTQGPLPNTCGHFWEMVWEQKSRGVVMLNRVMEKGSLKCAQYWPQKEEKEMIFEDTNLKLTLISEDIKSYYTVRQLELENLTTQETREILHFHYTTWPDFGVPESPASFLNFLFKVRE
SGSLSPEHGPVVVHCSAGIGRSGTFCLADTCLLLMDKRKDPSSVDIKKVLLEMRKFRMGLIQTADQLRFSYLAVIEGAKFIMGDSSVQDQWKELSHEDLEPPPEHIPPPPRPPKRILEPHNGKCREFFPNHQWVKEETQEDKDCPIKEEKGSPLNAAPYGIESMSQDTEVRSRVVGGSLRGAQAASPAKGEPSLPEKDED
HALSYWKPFLVNMCVATVLTAGAYLCYRFLFNSNT

> <PDB ID(s) of Target Chain>
1BZJ,1G7G,1GFY,1JF7,1KAK,1KAV,1LQF,1NL9,1NNY,1NO6,1NZ7,1OEM,1OEO,1OES,1OET,1OEU,1OEV,1ONY,1ONZ,1PH0,1PXH,1PYN,1Q1M,1Q6J,1Q6M,1Q6N,1Q6P,1Q6S,1Q6T,1QXK,1SUG,1T48,1T49,1T4J,1WAX,1XBO,2AZR,2B07,2BGD,2BGE,
2CM2,2CM3,2CM7,2CM8,2CMA,2CMB,2CMC,2CNE,2CNF,2CNG,2CNH,2CNI,2F6T,2F6V,2F6W,2F6Y,2F6Z,2F70,2F71,2FJN,2H4G,2H4K,2HB1,2HNP,2HNQ,2QBP,2QBQ,2QBR,2QBS,2VEU,2VEV,2VEW,2VEX,2VEY,2ZMM,2ZN7,3A5J,3CWE,3D9C,3EAX,
3EB1,3EU0,3I7Z,3I80,3SME,4BJO,4I8N,4QBW,4Y14,5K9V,5K9W,5KA0,5KA1,5T19,6B90,6NTP,6W30,7KEY,7KLX,7LFO,7MN9,7MNA,8DU7,8G65,8G67,8G68,8G69,8G6A,8SKL

> <UniProt (SwissProt) Recommended Name of Target Chain>
Tyrosine-protein phosphatase non-receptor type 1

> <UniProt (SwissProt) Entry Name of Target Chain>
PTN1_HUMAN

> <UniProt (SwissProt) Primary ID of Target Chain>
P18031

> <UniProt (SwissProt) Secondary ID(s) of Target Chain>
Q5TGD8 Q9BQV9 Q9NQQ4

$$$$
Molecule
  SciTegic10242319433D

 51 55  0  0  0  0            999 V2000
   30.7879  -21.1241    1.2786 O   0  0
   31.1367  -20.3345    0.0318 S   0  0
   30.7356  -21.1792   -1.1620 O   0  0
   17.1705  -18.3426    1.3333 O   0  0
   17.2225  -19.1649    0.0597 S   0  0
   17.1948  -18.1948   -1.1063 O   0  0
   20.0016  -18.0899    0.0332 C   0  0
   19.9545  -19.4314    0.0240 C   0  0
   21.2444  -20.2080    0.0179 C   0  0
   21.3040  -17.3841    0.0354 C   0  0
   18.6858  -20.0942    0.0222 N   0  0
   15.7391  -20.1600   -0.0176 C   0  0
   22.4068  -18.1282    0.0294 C   0  0
   22.3802  -19.5086    0.0215 C   0  0
   23.7158  -19.9604    0.0191 N   0  0
   24.4568  -18.9052    0.0243 C   0  0
   23.6894  -17.7239    0.0300 O   0  0
   25.9596  -18.9035    0.0245 C   0  0
   26.6453  -20.0520    0.0247 C   0  0
   28.1322  -20.0346    0.0246 C   0  0
   28.8004  -18.8778    0.0236 C   0  0
   28.0388  -17.6155    0.0235 C   0  0
   26.7009  -17.6294    0.0242 C   0  0
   30.2407  -18.8575    0.0227 N   0  0
   32.9238  -20.1362   -0.0101 C   0  0
   14.1857  -19.5407    0.0061 S   0  0
   13.3500  -20.9763   -0.0948 C   0  0
   14.2209  -21.9940   -0.1510 C   0  0
   15.6804  -21.4965   -0.1041 C   0  0
   11.6245  -21.1276   -0.1228 Cl  0  0
   33.6794  -21.2345   -0.0530 C   0  0
   35.1391  -21.1382   -0.0869 C   0  0
   35.7269  -19.9455   -0.0745 C   0  0
   34.9088  -18.7258   -0.0271 C   0  0
   33.5728  -18.8104    0.0037 C   0  0
   37.4544  -19.8359   -0.1143 Cl  0  0
   35.6870  -17.1817   -0.0114 Cl  0  0
   19.0750  -17.5159    0.0392 H   0  0
   21.2499  -21.2980    0.0107 H   0  0
   21.3568  -16.2954    0.0417 H   0  0
   18.6405  -21.1630   -0.0022 H   0  0
   26.1128  -21.0031    0.0248 H   0  0
   28.6826  -20.9754    0.0254 H   0  0
   28.5697  -16.6635    0.0228 H   0  0
   26.1526  -16.6873    0.0247 H   0  0
   30.7590  -17.9214    0.0164 H   0  0
   13.9333  -23.0431   -0.2212 H   0  0
   16.5531  -22.1488   -0.1370 H   0  0
   33.2039  -22.2152   -0.0630 H   0  0
   35.7444  -22.0440   -0.1223 H   0  0
   32.9674  -17.9047    0.0388 H   0  0
  2  1  2  0
  3  2  2  0
  5  4  2  0
  6  5  2  0
  7  8  2  0
  8  9  1  0
  9 14  2  0
 13 10  2  0
 10  7  1  0
  8 11  1  0
 11  5  1  0
  5 12  1  0
 13 14  1  0
 14 15  1  0
 15 16  2  0
 16 17  1  0
 17 13  1  0
 16 18  1  0
 18 19  2  0
 19 20  1  0
 20 21  2  0
 21 22  1  0
 22 23  2  0
 23 18  1  0
 21 24  1  0
 24  2  1  0
  2 25  1  0
 12 26  1  0
 26 27  1  0
 27 28  2  0
 28 29  1  0
 29 12  2  0
 27 30  1  0
 25 31  2  0
 31 32  1  0
 32 33  2  0
 33 34  1  0
 34 35  2  0
 35 25  1  0
 33 36  1  0
 34 37  1  0
  7 38  1  0
  9 39  1  0
 10 40  1  0
 11 41  1  0
 19 42  1  0
 20 43  1  0
 22 44  1  0
 23 45  1  0
 24 46  1  0
 28 47  1  0
 29 48  1  0
 31 49  1  0
 32 50  1  0
 35 51  1  0
M  END
> <Name>
Molecule

> <Clean Energy>
54.7111

> <From>
www.bindingDB.org

> <BindingDB Reactant_set_id>
51281233

> <Ligand InChI>
InChI=1S/C23H14Cl3N3O5S3/c24-17-7-6-16(12-18(17)25)36(30,31)28-14-3-1-13(2-4-14)23-27-19-11-15(5-8-20(19)34-23)29-37(32,33)22-10-9-21(26)35-22/h1-12,28-29H

> <Ligand InChI Key>
DYQKRQATEXQXGB-UHFFFAOYSA-N

> <BindingDB MonomerID>
50522567

> <BindingDB Ligand Name>
CHEMBL4542408

> <Target Name>
Tyrosine-protein phosphatase non-receptor type 1

> <Target Source Organism According to Curator or DataSource>
Homo sapiens

> <IC50 (nM)>
6900

> <Curation/DataSource>
ChEMBL

> <Article DOI>
10.1016/j.bmcl.2019.04.034

> <BindingDB Entry DOI>
10.7270/Q2MG7SWV

> <PMID>
31047750

> <Authors>
Washburn, A; Abdeen, S; Ovechkina, Y; Ray, AM; Stevens, M; Chitre, S; Sivinski, J; Park, Y; Johnson, J; Hoang, QQ; Chapman, E; Parish, T; Johnson, SM

> <Institution>
Indiana University School of Medicine

> <Link to Ligand in BindingDB>
http://www.bindingdb.org/bind/chemsearch/marvin/MolStructure.jsp?monomerid=50522567

> <Link to Ligand-Target Pair in BindingDB>
http://www.bindingdb.org/jsp/dbsearch/PrimarySearch_ki.jsp?energyterm=kJ/mole&tag=pol&polymerid=2622&target=Tyrosine-protein+phosphatase+non-receptor+type+1&column=ki&startPg=0&Increment=50&submit=Sea
rch
http://www.bindingdb.org/jsp/dbsearch/PrimarySearch_ki.jsp?energyterm=kJ/mole&tag=r21&monomerid=50522567&enzyme=Tyrosine-protein+phosphatase+non-receptor+type+1&column=ki&startPg=0&Increment=50&submit
=Search

> <PubChem CID of Ligand>
155550987

> <PubChem SID of Ligand>
440731149

> <Number of Protein Chains in Target (bigger than 1 implies a multichain complex)>
1

> <BindingDB Target Chain Sequence>
MEMEKEFEQIDKSGSWAAIYQDIRHEASDFPCRVAKLPKNKNRNRYRDVSPFDHSRIKLHQEDNDYINASLIKMEEAQRSYILTQGPLPNTCGHFWEMVWEQKSRGVVMLNRVMEKGSLKCAQYWPQKEEKEMIFEDTNLKLTLISEDIKSYYTVRQLELENLTTQETREILHFHYTTWPDFGVPESPASFLNFLFKVRE
SGSLSPEHGPVVVHCSAGIGRSGTFCLADTCLLLMDKRKDPSSVDIKKVLLEMRKFRMGLIQTADQLRFSYLAVIEGAKFIMGDSSVQDQWKELSHEDLEPPPEHIPPPPRPPKRILEPHNGKCREFFPNHQWVKEETQEDKDCPIKEEKGSPLNAAPYGIESMSQDTEVRSRVVGGSLRGAQAASPAKGEPSLPEKDED
HALSYWKPFLVNMCVATVLTAGAYLCYRFLFNSNT

> <PDB ID(s) of Target Chain>
1BZJ,1G7G,1GFY,1JF7,1KAK,1KAV,1LQF,1NL9,1NNY,1NO6,1NZ7,1OEM,1OEO,1OES,1OET,1OEU,1OEV,1ONY,1ONZ,1PH0,1PXH,1PYN,1Q1M,1Q6J,1Q6M,1Q6N,1Q6P,1Q6S,1Q6T,1QXK,1SUG,1T48,1T49,1T4J,1WAX,1XBO,2AZR,2B07,2BGD,2BGE,
2CM2,2CM3,2CM7,2CM8,2CMA,2CMB,2CMC,2CNE,2CNF,2CNG,2CNH,2CNI,2F6T,2F6V,2F6W,2F6Y,2F6Z,2F70,2F71,2FJN,2H4G,2H4K,2HB1,2HNP,2HNQ,2QBP,2QBQ,2QBR,2QBS,2VEU,2VEV,2VEW,2VEX,2VEY,2ZMM,2ZN7,3A5J,3CWE,3D9C,3EAX,
3EB1,3EU0,3I7Z,3I80,3SME,4BJO,4I8N,4QBW,4Y14,5K9V,5K9W,5KA0,5KA1,5T19,6B90,6NTP,6W30,7KEY,7KLX,7LFO,7MN9,7MNA,8DU7,8G65,8G67,8G68,8G69,8G6A,8SKL

> <UniProt (SwissProt) Recommended Name of Target Chain>
Tyrosine-protein phosphatase non-receptor type 1

> <UniProt (SwissProt) Entry Name of Target Chain>
PTN1_HUMAN

> <UniProt (SwissProt) Primary ID of Target Chain>
P18031

> <UniProt (SwissProt) Secondary ID(s) of Target Chain>
Q5TGD8 Q9BQV9 Q9NQQ4

$$$$
1
  SciTegic10242319433D

 46 48  0  0  0  0            999 V2000
   -3.8437    2.4920   -0.0008 C   0  0
   -4.5089    4.5651   -0.0002 C   0  0
   -4.9594    3.2110    0.0003 C   0  0
   -2.7727    3.3492   -0.0019 O   0  0
   -3.2347    4.6030   -0.0015 N   0  0
   -5.4006    5.7328    0.0005 C   0  0
   -4.9311    6.8761    0.0001 O   0  0
   -6.7828    5.5497    0.0013 O   0  0
   -3.7498    0.9765   -0.0010 C   0  0
   -4.8514    0.1990    0.0014 C   0  0
   -4.7223   -1.2482    0.0011 C   0  0
   -3.5295   -1.8261   -0.0016 C   0  0
   -2.3144   -1.0296   -0.0044 C   0  0
   -2.3979    0.3103   -0.0041 C   0  0
   -6.0953    0.7049    0.0042 F   0  0
   -1.0232   -1.7691   -0.0073 C   0  0
    0.1774   -1.1930   -0.0110 C   0  0
    1.4169   -2.0832   -0.0128 C   0  0
    2.5966   -1.2604   -0.0114 O   0  0
    3.7909   -1.9733   -0.0061 C   0  0
    5.0101   -1.3702   -0.0027 C   0  0
    3.7061   -3.4524   -0.0020 C   0  0
    4.7960   -4.2113    0.0000 C   0  0
    6.0977   -3.5949    0.0009 C   0  0
    6.2178   -2.2711   -0.0020 C   0  0
    5.3553    0.1741   -0.0072 C   0  0
    6.5615    0.4319   -0.0386 O   0  0
    4.5260    1.3883    0.0256 O   0  0
    3.1128    1.3813    0.0808 C   0  0
    7.5024   -1.7322   -0.0003 O   0  0
   -5.9876    2.8489    0.0014 H   0  0
   -7.0657    5.0131   -0.8558 H   0  0
   -5.6193   -1.8675    0.0031 H   0  0
   -3.4592   -2.9138   -0.0018 H   0  0
   -1.4907    0.9145   -0.0060 H   0  0
   -1.0628   -2.8584   -0.0064 H   0  0
    0.2728   -0.1072   -0.0127 H   0  0
    1.4126   -2.7139    0.8762 H   0  0
    1.4124   -2.7106   -0.9041 H   0  0
    2.7259   -3.9291   -0.0007 H   0  0
    4.7056   -5.2976    0.0010 H   0  0
    6.9914   -4.2189    0.0039 H   0  0
    2.7442    2.4069    0.0955 H   0  0
    2.7865    0.8655    0.9839 H   0  0
    2.7170    0.8661   -0.7945 H   0  0
    7.6350   -1.1397   -0.8570 H   0  0
  1  4  1  0
  1  3  2  0
  4  5  1  0
  5  2  2  0
  2  3  1  0
  1  9  1  0
  2  6  1  0
  6  8  1  0
  6  7  2  0
  9 10  2  0
  9 14  1  0
 10 11  1  0
 11 12  2  0
 12 13  1  0
 13 14  2  0
 10 15  1  0
 13 16  1  0
 16 17  2  0
 17 18  1  0
 18 19  1  0
 19 20  1  0
 21 20  2  0
 20 22  1  0
 21 25  1  0
 22 23  2  0
 23 24  1  0
 24 25  2  0
 21 26  1  0
 26 27  2  0
 26 28  1  0
 28 29  1  0
 25 30  1  0
  3 31  1  0
  8 32  1  0
 11 33  1  0
 12 34  1  0
 14 35  1  0
 16 36  1  0
 17 37  1  0
 18 38  1  0
 18 39  1  0
 22 40  1  0
 23 41  1  0
 24 42  1  0
 29 43  1  0
 29 44  1  0
 29 45  1  0
 30 46  1  0
M  END
> <Name>
1

> <Clean Energy>
37.7772

> <From>
www.bindingDB.org

> <BindingDB Reactant_set_id>
50503529

> <Ligand InChI>
InChI=1S/C21H16FNO7/c1-28-21(27)19-16(24)5-2-6-17(19)29-9-3-4-12-7-8-14(22)13(10-12)18-11-15(20(25)26)23-30-18/h2-8,10-11,24H,9H2,1H3,(H,25,26)/b4-3+

> <Ligand InChI Key>
QKHWJUMLYAYZFS-ONEGZZNKSA-N

> <BindingDB MonomerID>
13990

> <BindingDB Ligand Name>
5-{2-fluoro-5-[(1E)-3-[3-hydroxy-2-(methoxycarbonyl)phenoxy]prop-1-en-1-yl]phenyl}-1,2-oxazole-3-carboxylic acid::CHEMBL117869::Isoxazole carboxylic acid analog 1

> <Target Name>
Tyrosine-protein phosphatase non-receptor type 1

> <Target Source Organism According to Curator or DataSource>
Homo sapiens

> <IC50 (nM)>
6900

> <Curation/DataSource>
ChEMBL

> <Article DOI>
10.1016/j.bmc.2016.06.035

> <BindingDB Entry DOI>
10.7270/Q20Z756P

> <PMID>
27353889

> <Authors>
Li, X; Wang, L; Shi, D

> <Institution>
Chinese Academy of Sciences

> <Link to Ligand in BindingDB>
http://www.bindingdb.org/bind/chemsearch/marvin/MolStructure.jsp?monomerid=13990

> <Link to Ligand-Target Pair in BindingDB>
http://www.bindingdb.org/jsp/dbsearch/PrimarySearch_ki.jsp?energyterm=kJ/mole&tag=pol&polymerid=2622&target=Tyrosine-protein+phosphatase+non-receptor+type+1&column=ki&startPg=0&Increment=50&submit=Sea
rch
http://www.bindingdb.org/jsp/dbsearch/PrimarySearch_ki.jsp?energyterm=kJ/mole&tag=r21&monomerid=13990&enzyme=Tyrosine-protein+phosphatase+non-receptor+type+1&column=ki&startPg=0&Increment=50&submit=Se
arch

> <Ligand HET ID in PDB>
234

> <PDB ID(s) for Ligand-Target Complex>
1Q1M

> <PubChem CID of Ligand>
447994

> <PubChem SID of Ligand>
46514356

> <ChEMBL ID of Ligand>
CHEMBL117869

> <DrugBank ID of Ligand>
DB02014

> <ZINC ID of Ligand>
ZINC02047375

> <Number of Protein Chains in Target (bigger than 1 implies a multichain complex)>
1

> <BindingDB Target Chain Sequence>
MEMEKEFEQIDKSGSWAAIYQDIRHEASDFPCRVAKLPKNKNRNRYRDVSPFDHSRIKLHQEDNDYINASLIKMEEAQRSYILTQGPLPNTCGHFWEMVWEQKSRGVVMLNRVMEKGSLKCAQYWPQKEEKEMIFEDTNLKLTLISEDIKSYYTVRQLELENLTTQETREILHFHYTTWPDFGVPESPASFLNFLFKVRE
SGSLSPEHGPVVVHCSAGIGRSGTFCLADTCLLLMDKRKDPSSVDIKKVLLEMRKFRMGLIQTADQLRFSYLAVIEGAKFIMGDSSVQDQWKELSHEDLEPPPEHIPPPPRPPKRILEPHNGKCREFFPNHQWVKEETQEDKDCPIKEEKGSPLNAAPYGIESMSQDTEVRSRVVGGSLRGAQAASPAKGEPSLPEKDED
HALSYWKPFLVNMCVATVLTAGAYLCYRFLFNSNT

> <PDB ID(s) of Target Chain>
1BZJ,1G7G,1GFY,1JF7,1KAK,1KAV,1LQF,1NL9,1NNY,1NO6,1NZ7,1OEM,1OEO,1OES,1OET,1OEU,1OEV,1ONY,1ONZ,1PH0,1PXH,1PYN,1Q1M,1Q6J,1Q6M,1Q6N,1Q6P,1Q6S,1Q6T,1QXK,1SUG,1T48,1T49,1T4J,1WAX,1XBO,2AZR,2B07,2BGD,2BGE,
2CM2,2CM3,2CM7,2CM8,2CMA,2CMB,2CMC,2CNE,2CNF,2CNG,2CNH,2CNI,2F6T,2F6V,2F6W,2F6Y,2F6Z,2F70,2F71,2FJN,2H4G,2H4K,2HB1,2HNP,2HNQ,2QBP,2QBQ,2QBR,2QBS,2VEU,2VEV,2VEW,2VEX,2VEY,2ZMM,2ZN7,3A5J,3CWE,3D9C,3EAX,
3EB1,3EU0,3I7Z,3I80,3SME,4BJO,4I8N,4QBW,4Y14,5K9V,5K9W,5KA0,5KA1,5T19,6B90,6NTP,6W30,7KEY,7KLX,7LFO,7MN9,7MNA,8DU7,8G65,8G67,8G68,8G69,8G6A,8SKL

> <UniProt (SwissProt) Recommended Name of Target Chain>
Tyrosine-protein phosphatase non-receptor type 1

> <UniProt (SwissProt) Entry Name of Target Chain>
PTN1_HUMAN

> <UniProt (SwissProt) Primary ID of Target Chain>
P18031

> <UniProt (SwissProt) Secondary ID(s) of Target Chain>
Q5TGD8 Q9BQV9 Q9NQQ4

$$$$
Molecule
  SciTegic10242319433D

 45 48  0  0  0  0            999 V2000
   20.4859  -17.5939   -0.0002 C   0  0
   15.8281  -14.3245   -0.0002 C   0  0
   15.9906  -17.1032   -0.0001 C   0  0
   22.6520  -18.6414    0.0000 C   0  0
   21.9439  -17.5128   -0.0002 C   0  0
   24.7381  -17.4210   -0.0001 C   0  0
    9.5655  -14.6469    0.0003 C   0  0
   18.3900  -17.0874   -0.0002 C   0  0
   17.0243  -14.9212   -0.0003 C   0  0
   13.3041  -14.3936    0.0000 O   0  0
   19.8558  -18.6995   -0.0001 N   0  0
   18.4952  -18.4103   -0.0001 C   0  0
   22.6278  -16.2183   -0.0003 C   0  0
   23.9606  -16.1744   -0.0003 C   0  0
   14.5806  -15.1235   -0.0001 C   0  0
   24.1113  -18.5950    0.0000 C   0  0
   10.8024  -14.1481    0.0002 C   0  0
   11.7592  -16.3572    0.0000 C   0  0
   11.9770  -15.0367    0.0000 C   0  0
   17.1060  -16.3828   -0.0002 C   0  0
   24.8446  -19.7775    0.0001 O   0  0
   26.1286  -17.3776   -0.0001 O   0  0
   10.4062  -16.9073    0.0001 C   0  0
   19.6233  -16.5274   -0.0002 O   0  0
   14.6938  -16.4538   -0.0001 C   0  0
    9.3529  -16.0934    0.0002 C   0  0
    8.0419  -16.6065    0.0003 O   0  0
    8.0396  -18.0450    0.0002 C   0  0
   15.7699  -13.2360   -0.0002 H   0  0
   16.0501  -18.1916   -0.0001 H   0  0
   22.1397  -19.6035    0.0001 H   0  0
    8.7089  -13.9728    0.0004 H   0  0
   17.9349  -14.3221   -0.0003 H   0  0
   17.6760  -19.1294   -0.0001 H   0  0
   22.0498  -15.2941   -0.0004 H   0  0
   24.4737  -15.2127   -0.0004 H   0  0
   10.9461  -13.0676    0.0002 H   0  0
   12.6108  -17.0376   -0.0001 H   0  0
   25.4499  -19.8146   -0.8571 H   0  0
   26.4635  -16.8721   -0.8574 H   0  0
   10.2585  -17.9872    0.0000 H   0  0
   13.7916  -17.0654   -0.0001 H   0  0
    7.0115  -18.4072    0.0003 H   0  0
    8.5528  -18.4098    0.8900 H   0  0
    8.5526  -18.4096   -0.8898 H   0  0
  3 25  1  0
  6 14  1  0
 24  1  1  0
 17  7  2  0
  6 22  1  0
 10 19  1  0
  7 26  1  0
 18 19  2  0
  8 20  1  0
 24  8  1  0
 13 14  2  0
 26 23  2  0
 17 19  1  0
 23 18  1  0
 20  3  2  0
 15 10  1  0
  6 16  2  0
  5  1  1  0
 16 21  1  0
  1 11  2  0
 12  8  2  0
  4  5  2  0
  5 13  1  0
 20  9  1  0
 25 15  2  0
  2  9  2  0
 16  4  1  0
 15  2  1  0
 11 12  1  0
 26 27  1  0
 27 28  1  0
  2 29  1  0
  3 30  1  0
  4 31  1  0
  7 32  1  0
  9 33  1  0
 12 34  1  0
 13 35  1  0
 14 36  1  0
 17 37  1  0
 18 38  1  0
 21 39  1  0
 22 40  1  0
 23 41  1  0
 25 42  1  0
 28 43  1  0
 28 44  1  0
 28 45  1  0
M  END
> <Name>
Molecule

> <Clean Energy>
24.9249

> <From>
www.bindingDB.org

> <BindingDB Reactant_set_id>
50991471

> <Ligand InChI>
InChI=1S/C22H17NO5/c1-26-16-7-9-18(10-8-16)27-17-5-2-14(3-6-17)21-13-23-22(28-21)15-4-11-19(24)20(25)12-15/h2-13,24-25H,1H3

> <Ligand InChI Key>
GXHPZKCKUQKTOO-UHFFFAOYSA-N

> <BindingDB MonomerID>
50282251

> <BindingDB Ligand Name>
CHEMBL4163256

> <Target Name>
Tyrosine-protein phosphatase non-receptor type 1

> <Target Source Organism According to Curator or DataSource>
Homo sapiens

> <IC50 (nM)>
6920

> <Curation/DataSource>
ChEMBL

> <Article DOI>
10.1016/j.ejmech.2017.05.007

> <BindingDB Entry DOI>
10.7270/Q2SJ1P4Q

> <PMID>
28511130

> <Authors>
Li, XQ; Xu, Q; Luo, J; Wang, LJ; Jiang, B; Zhang, RS; Shi, DY

> <Institution>
Chinese Academy of Sciences

> <Link to Ligand in BindingDB>
http://www.bindingdb.org/bind/chemsearch/marvin/MolStructure.jsp?monomerid=50282251

> <Link to Ligand-Target Pair in BindingDB>
http://www.bindingdb.org/jsp/dbsearch/PrimarySearch_ki.jsp?energyterm=kJ/mole&tag=pol&polymerid=2622&target=Tyrosine-protein+phosphatase+non-receptor+type+1&column=ki&startPg=0&Increment=50&submit=Sea
rch
http://www.bindingdb.org/jsp/dbsearch/PrimarySearch_ki.jsp?energyterm=kJ/mole&tag=r21&monomerid=50282251&enzyme=Tyrosine-protein+phosphatase+non-receptor+type+1&column=ki&startPg=0&Increment=50&submit
=Search

> <PubChem CID of Ligand>
145960007

> <PubChem SID of Ligand>
104123925

> <ZINC ID of Ligand>
ZINC29306391

> <Number of Protein Chains in Target (bigger than 1 implies a multichain complex)>
1

> <BindingDB Target Chain Sequence>
MEMEKEFEQIDKSGSWAAIYQDIRHEASDFPCRVAKLPKNKNRNRYRDVSPFDHSRIKLHQEDNDYINASLIKMEEAQRSYILTQGPLPNTCGHFWEMVWEQKSRGVVMLNRVMEKGSLKCAQYWPQKEEKEMIFEDTNLKLTLISEDIKSYYTVRQLELENLTTQETREILHFHYTTWPDFGVPESPASFLNFLFKVRE
SGSLSPEHGPVVVHCSAGIGRSGTFCLADTCLLLMDKRKDPSSVDIKKVLLEMRKFRMGLIQTADQLRFSYLAVIEGAKFIMGDSSVQDQWKELSHEDLEPPPEHIPPPPRPPKRILEPHNGKCREFFPNHQWVKEETQEDKDCPIKEEKGSPLNAAPYGIESMSQDTEVRSRVVGGSLRGAQAASPAKGEPSLPEKDED
HALSYWKPFLVNMCVATVLTAGAYLCYRFLFNSNT

> <PDB ID(s) of Target Chain>
1BZJ,1G7G,1GFY,1JF7,1KAK,1KAV,1LQF,1NL9,1NNY,1NO6,1NZ7,1OEM,1OEO,1OES,1OET,1OEU,1OEV,1ONY,1ONZ,1PH0,1PXH,1PYN,1Q1M,1Q6J,1Q6M,1Q6N,1Q6P,1Q6S,1Q6T,1QXK,1SUG,1T48,1T49,1T4J,1WAX,1XBO,2AZR,2B07,2BGD,2BGE,
2CM2,2CM3,2CM7,2CM8,2CMA,2CMB,2CMC,2CNE,2CNF,2CNG,2CNH,2CNI,2F6T,2F6V,2F6W,2F6Y,2F6Z,2F70,2F71,2FJN,2H4G,2H4K,2HB1,2HNP,2HNQ,2QBP,2QBQ,2QBR,2QBS,2VEU,2VEV,2VEW,2VEX,2VEY,2ZMM,2ZN7,3A5J,3CWE,3D9C,3EAX,
3EB1,3EU0,3I7Z,3I80,3SME,4BJO,4I8N,4QBW,4Y14,5K9V,5K9W,5KA0,5KA1,5T19,6B90,6NTP,6W30,7KEY,7KLX,7LFO,7MN9,7MNA,8DU7,8G65,8G67,8G68,8G69,8G6A,8SKL

> <UniProt (SwissProt) Recommended Name of Target Chain>
Tyrosine-protein phosphatase non-receptor type 1

> <UniProt (SwissProt) Entry Name of Target Chain>
PTN1_HUMAN

> <UniProt (SwissProt) Primary ID of Target Chain>
P18031

> <UniProt (SwissProt) Secondary ID(s) of Target Chain>
Q5TGD8 Q9BQV9 Q9NQQ4

$$$$
Molecule
  SciTegic10242319433D

 49 51  0  0  0  0            999 V2000
   24.8013   -9.7353   -0.1082 C   0  0
   25.2437   -9.2016   -1.4275 C   0  0
   23.2392   -9.2614    0.1880 C   0  0
   24.8347  -11.2230    0.0980 O   0  0
   26.1684  -11.9786    0.1391 C   0  0
   25.9962   -9.0083    0.6057 C   0  0
   27.4906   -9.7052    0.2418 C   0  0
   27.5520  -11.2000    0.1495 C   0  0
   28.6966  -11.8757    0.0388 N   0  0
   30.0370  -11.2837   -0.0076 N   0  0
   30.0230   -9.8189   -0.0574 C   0  0
   28.6666   -9.0234    0.0827 C   0  0
   31.4753  -12.1595   -0.0063 C   0  0
   31.5342  -13.5127    0.0000 C   0  0
   32.9062  -14.2882    0.0014 C   0  0
   34.0989  -13.6561    0.0000 C   0  0
   34.0493  -12.1708   -0.0032 C   0  0
   32.8689  -11.4859   -0.0070 C   0  0
   28.7079   -7.5528    0.0711 C   0  0
   28.7394   -6.3983    0.0581 N   0  0
   31.1233   -9.1753   -0.0584 N   0  0
   35.4986  -14.5051    0.0006 C   0  0
   36.8926  -13.6765   -0.0003 C   0  0
   38.1807  -14.6383   -0.0003 C   0  0
   39.5326  -13.8353   -0.0011 C   0  0
   26.2700   -9.5138   -1.6206 H   0  0
   25.1918   -8.1129   -1.4155 H   0  0
   24.5934   -9.5873   -2.2126 H   0  0
   22.9171   -9.6524    1.1530 H   0  0
   22.5871   -9.6472   -0.5957 H   0  0
   23.1856   -8.1727    0.2014 H   0  0
   26.1503  -12.5892    1.0418 H   0  0
   26.1843  -12.6258   -0.7378 H   0  0
   26.0106   -7.9658    0.2878 H   0  0
   25.8411   -9.0579    1.6835 H   0  0
   30.6049  -14.0824    0.0041 H   0  0
   32.8914  -15.3781    0.0037 H   0  0
   34.9846  -11.6111   -0.0025 H   0  0
   32.9100  -10.3967   -0.0107 H   0  0
   31.1175   -8.1059   -0.0947 H   0  0
   35.4960  -15.1333    0.8914 H   0  0
   35.4957  -15.1350   -0.8889 H   0  0
   36.9253  -13.0488   -0.8908 H   0  0
   36.9260  -13.0479    0.8894 H   0  0
   38.1478  -15.2661    0.8901 H   0  0
   38.1473  -15.2669   -0.8902 H   0  0
   40.3701  -14.5329   -0.0011 H   0  0
   39.5833  -13.2075    0.8885 H   0  0
   39.5828  -13.2082   -0.8913 H   0  0
  2  1  1  0
  1  3  1  0
  1  4  1  0
  1  6  1  0
  4  5  1  0
  5  8  1  0
  7  6  1  0
  7  8  1  0
  7 12  2  0
  8  9  2  0
  9 10  1  0
 10 11  1  0
 11 12  1  0
 13 14  2  0
 13 18  1  0
 14 15  1  0
 15 16  2  0
 16 17  1  0
 17 18  2  0
 10 13  1  0
 19 20  3  0
 12 19  1  0
 11 21  2  0
 16 22  1  0
 22 23  1  0
 23 24  1  0
 24 25  1  0
  2 26  1  0
  2 27  1  0
  2 28  1  0
  3 29  1  0
  3 30  1  0
  3 31  1  0
  5 32  1  0
  5 33  1  0
  6 34  1  0
  6 35  1  0
 14 36  1  0
 15 37  1  0
 17 38  1  0
 18 39  1  0
 21 40  1  0
 22 41  1  0
 22 42  1  0
 23 43  1  0
 23 44  1  0
 24 45  1  0
 24 46  1  0
 25 47  1  0
 25 48  1  0
 25 49  1  0
M  END
> <Name>
Molecule

> <Clean Energy>
61.3479

> <From>
www.bindingDB.org

> <BindingDB Reactant_set_id>
51075635

> <Ligand InChI>
InChI=1S/C20H24N4O/c1-4-5-6-14-7-9-15(10-8-14)24-19(22)17(12-21)16-11-20(2,3)25-13-18(16)23-24/h7-10,22H,4-6,11,13H2,1-3H3

> <Ligand InChI Key>
KOJKNTWEHFFBCM-UHFFFAOYSA-N

> <BindingDB MonomerID>
50439984

> <BindingDB Ligand Name>
CHEMBL2424696

> <Target Name>
Tyrosine-protein phosphatase non-receptor type 1

> <Target Source Organism According to Curator or DataSource>
Homo sapiens

> <IC50 (nM)>
6998

> <Curation/DataSource>
ChEMBL

> <Article DOI>
10.1007/s00044-013-0797-8

> <BindingDB Entry DOI>
10.7270/Q2MP54Q2

> <Authors>
n/a

> <Institution>
n/a

> <Link to Ligand in BindingDB>
http://www.bindingdb.org/bind/chemsearch/marvin/MolStructure.jsp?monomerid=50439984

> <Link to Ligand-Target Pair in BindingDB>
http://www.bindingdb.org/jsp/dbsearch/PrimarySearch_ki.jsp?energyterm=kJ/mole&tag=pol&polymerid=2622&target=Tyrosine-protein+phosphatase+non-receptor+type+1&column=ki&startPg=0&Increment=50&submit=Sea
rch
http://www.bindingdb.org/jsp/dbsearch/PrimarySearch_ki.jsp?energyterm=kJ/mole&tag=r21&monomerid=50439984&enzyme=Tyrosine-protein+phosphatase+non-receptor+type+1&column=ki&startPg=0&Increment=50&submit
=Search

> <PubChem CID of Ligand>
91898779

> <PubChem SID of Ligand>
175452301

> <ChEMBL ID of Ligand>
CHEMBL2424696

> <ZINC ID of Ligand>
ZINC13838722

> <Number of Protein Chains in Target (bigger than 1 implies a multichain complex)>
1

> <BindingDB Target Chain Sequence>
MEMEKEFEQIDKSGSWAAIYQDIRHEASDFPCRVAKLPKNKNRNRYRDVSPFDHSRIKLHQEDNDYINASLIKMEEAQRSYILTQGPLPNTCGHFWEMVWEQKSRGVVMLNRVMEKGSLKCAQYWPQKEEKEMIFEDTNLKLTLISEDIKSYYTVRQLELENLTTQETREILHFHYTTWPDFGVPESPASFLNFLFKVRE
SGSLSPEHGPVVVHCSAGIGRSGTFCLADTCLLLMDKRKDPSSVDIKKVLLEMRKFRMGLIQTADQLRFSYLAVIEGAKFIMGDSSVQDQWKELSHEDLEPPPEHIPPPPRPPKRILEPHNGKCREFFPNHQWVKEETQEDKDCPIKEEKGSPLNAAPYGIESMSQDTEVRSRVVGGSLRGAQAASPAKGEPSLPEKDED
HALSYWKPFLVNMCVATVLTAGAYLCYRFLFNSNT

> <PDB ID(s) of Target Chain>
1BZJ,1G7G,1GFY,1JF7,1KAK,1KAV,1LQF,1NL9,1NNY,1NO6,1NZ7,1OEM,1OEO,1OES,1OET,1OEU,1OEV,1ONY,1ONZ,1PH0,1PXH,1PYN,1Q1M,1Q6J,1Q6M,1Q6N,1Q6P,1Q6S,1Q6T,1QXK,1SUG,1T48,1T49,1T4J,1WAX,1XBO,2AZR,2B07,2BGD,2BGE,
2CM2,2CM3,2CM7,2CM8,2CMA,2CMB,2CMC,2CNE,2CNF,2CNG,2CNH,2CNI,2F6T,2F6V,2F6W,2F6Y,2F6Z,2F70,2F71,2FJN,2H4G,2H4K,2HB1,2HNP,2HNQ,2QBP,2QBQ,2QBR,2QBS,2VEU,2VEV,2VEW,2VEX,2VEY,2ZMM,2ZN7,3A5J,3CWE,3D9C,3EAX,
3EB1,3EU0,3I7Z,3I80,3SME,4BJO,4I8N,4QBW,4Y14,5K9V,5K9W,5KA0,5KA1,5T19,6B90,6NTP,6W30,7KEY,7KLX,7LFO,7MN9,7MNA,8DU7,8G65,8G67,8G68,8G69,8G6A,8SKL

> <UniProt (SwissProt) Recommended Name of Target Chain>
Tyrosine-protein phosphatase non-receptor type 1

> <UniProt (SwissProt) Entry Name of Target Chain>
PTN1_HUMAN

> <UniProt (SwissProt) Primary ID of Target Chain>
P18031

> <UniProt (SwissProt) Secondary ID(s) of Target Chain>
Q5TGD8 Q9BQV9 Q9NQQ4

$$$$
Molecule
  SciTegic10242319433D

 57 59  0  0  0  0            999 V2000
   -2.4521    0.6766   -0.0002 C   0  0
   -2.4330   -0.6505   -0.0008 C   0  0
   -1.1812   -1.3710    0.0003 C   0  0
   -1.1452    1.4421   -0.0007 C   0  0
    0.0000    0.7455    0.0007 C   0  0
   -0.0260   -0.7063   -0.0009 C   0  0
    1.2269   -1.4208    0.0002 C   0  0
    2.4995   -0.6487    0.0001 C   0  0
    2.4262    0.6903    0.0003 C   0  0
    1.2145    1.3874    0.0000 O   0  0
    1.2114   -2.6557    0.0000 O   0  0
    3.8508   -1.3760    0.0002 C   0  0
    3.8570   -2.7080    0.0000 C   0  0
    5.0845   -3.4637    0.0000 C   0  0
    6.2517   -2.8382    0.0002 C   0  0
    6.3228   -1.3768    0.0004 C   0  0
    5.1780   -0.6527    0.0004 C   0  0
    7.4268   -3.5820    0.0002 O   0  0
   -1.2020   -2.7610   -0.0005 O   0  0
   -3.6995    1.2952   -0.0006 O   0  0
   -1.0700    2.9842    0.0000 C   0  0
   -2.4273    3.6452   -0.0001 C   0  0
   -2.5875    4.9674   -0.0004 C   0  0
   -3.9779    5.5391   -0.0003 C   0  0
   -1.4010    5.8867   -0.0008 C   0  0
    5.1998    0.7381    0.0006 O   0  0
    7.7504   -0.7925    0.0005 C   0  0
    7.8890    0.7024    0.0001 C   0  0
    9.0992    1.2615    0.0004 C   0  0
    9.2296    2.7552    0.0000 C   0  0
   10.3372    0.4028    0.0011 C   0  0
   -3.3726   -1.2030   -0.0022 H   0  0
    3.3544    1.2617    0.0008 H   0  0
    2.9066   -3.2419   -0.0001 H   0  0
    5.0519   -4.5532   -0.0001 H   0  0
    7.4583   -4.1878    0.8573 H   0  0
   -1.7031   -3.1045    0.8559 H   0  0
   -4.2329    1.0080   -0.8583 H   0  0
   -0.5288    3.3043    0.8904 H   0  0
   -0.5284    3.3050   -0.8899 H   0  0
   -3.3150    3.0126    0.0002 H   0  0
   -3.9236    6.6277   -0.0006 H   0  0
   -4.5096    5.2026    0.8897 H   0  0
   -4.5099    5.2021   -0.8900 H   0  0
   -1.7427    6.9217   -0.0010 H   0  0
   -0.7989    5.7032   -0.8907 H   0  0
   -0.7986    5.7037    0.8890 H   0  0
    5.7001    1.0806    0.8579 H   0  0
    8.2557   -1.1666    0.8909 H   0  0
    8.2562   -1.1672   -0.8894 H   0  0
    6.9989    1.3315   -0.0004 H   0  0
   10.2848    3.0283    0.0003 H   0  0
    8.7492    3.1626    0.8895 H   0  0
    8.7498    3.1620   -0.8902 H   0  0
   11.2217    1.0397    0.0012 H   0  0
   10.3437   -0.2269   -0.8885 H   0  0
   10.3431   -0.2264    0.8912 H   0  0
  1  2  2  0
  2  3  1  0
  3  6  2  0
  5  4  2  0
  4  1  1  0
  5  6  1  0
  5 10  1  0
  6  7  1  0
  7  8  1  0
  8  9  2  0
  9 10  1  0
  7 11  2  0
 12 13  2  0
 13 14  1  0
 14 15  2  0
 15 16  1  0
 16 17  2  0
 17 12  1  0
  8 12  1  0
 15 18  1  0
  3 19  1  0
  1 20  1  0
  4 21  1  0
 21 22  1  0
 22 23  2  0
 23 24  1  0
 23 25  1  0
 17 26  1  0
 16 27  1  0
 27 28  1  0
 28 29  2  0
 29 30  1  0
 29 31  1  0
  2 32  1  0
  9 33  1  0
 13 34  1  0
 14 35  1  0
 18 36  1  0
 19 37  1  0
 20 38  1  0
 21 39  1  0
 21 40  1  0
 22 41  1  0
 24 42  1  0
 24 43  1  0
 24 44  1  0
 25 45  1  0
 25 46  1  0
 25 47  1  0
 26 48  1  0
 27 49  1  0
 27 50  1  0
 28 51  1  0
 30 52  1  0
 30 53  1  0
 30 54  1  0
 31 55  1  0
 31 56  1  0
 31 57  1  0
M  END
> <Name>
Molecule

> <Clean Energy>
5.78153

> <From>
www.bindingDB.org

> <BindingDB Reactant_set_id>
51333212

> <Ligand InChI>
InChI=1S/C25H26O6/c1-13(2)5-7-16-19(26)10-9-15(23(16)29)18-12-31-25-17(8-6-14(3)4)20(27)11-21(28)22(25)24(18)30/h5-6,9-12,26-29H,7-8H2,1-4H3

> <Ligand InChI Key>
VHWHNZUORPFYQI-UHFFFAOYSA-N

> <BindingDB MonomerID>
50253187

> <BindingDB Ligand Name>
CHEMBL3810262

> <Target Name>
Tyrosine-protein phosphatase non-receptor type 1

> <Target Source Organism According to Curator or DataSource>
Homo sapiens

> <IC50 (nM)>
7000

> <Curation/DataSource>
ChEMBL

> <Article DOI>
10.1021/acs.jnatprod.9b00262

> <BindingDB Entry DOI>
10.7270/Q2QJ7MTH

> <PMID>
32196343

> <Authors>
Fan, JR; Kuang, Y; Dong, ZY; Yi, Y; Zhou, YX; Li, B; Qiao, X; Ye, M

> <Institution>
Peking University

> <Link to Ligand in BindingDB>
http://www.bindingdb.org/bind/chemsearch/marvin/MolStructure.jsp?monomerid=50253187

> <Link to Ligand-Target Pair in BindingDB>
http://www.bindingdb.org/jsp/dbsearch/PrimarySearch_ki.jsp?energyterm=kJ/mole&tag=pol&polymerid=2622&target=Tyrosine-protein+phosphatase+non-receptor+type+1&column=ki&startPg=0&Increment=50&submit=Sea
rch
http://www.bindingdb.org/jsp/dbsearch/PrimarySearch_ki.jsp?energyterm=kJ/mole&tag=r21&monomerid=50253187&enzyme=Tyrosine-protein+phosphatase+non-receptor+type+1&column=ki&startPg=0&Increment=50&submit
=Search

> <PubChem CID of Ligand>
14237659

> <PubChem SID of Ligand>
104105786

> <ZINC ID of Ligand>
ZINC49833230

> <Number of Protein Chains in Target (bigger than 1 implies a multichain complex)>
1

> <BindingDB Target Chain Sequence>
MEMEKEFEQIDKSGSWAAIYQDIRHEASDFPCRVAKLPKNKNRNRYRDVSPFDHSRIKLHQEDNDYINASLIKMEEAQRSYILTQGPLPNTCGHFWEMVWEQKSRGVVMLNRVMEKGSLKCAQYWPQKEEKEMIFEDTNLKLTLISEDIKSYYTVRQLELENLTTQETREILHFHYTTWPDFGVPESPASFLNFLFKVRE
SGSLSPEHGPVVVHCSAGIGRSGTFCLADTCLLLMDKRKDPSSVDIKKVLLEMRKFRMGLIQTADQLRFSYLAVIEGAKFIMGDSSVQDQWKELSHEDLEPPPEHIPPPPRPPKRILEPHNGKCREFFPNHQWVKEETQEDKDCPIKEEKGSPLNAAPYGIESMSQDTEVRSRVVGGSLRGAQAASPAKGEPSLPEKDED
HALSYWKPFLVNMCVATVLTAGAYLCYRFLFNSNT

> <PDB ID(s) of Target Chain>
1BZJ,1G7G,1GFY,1JF7,1KAK,1KAV,1LQF,1NL9,1NNY,1NO6,1NZ7,1OEM,1OEO,1OES,1OET,1OEU,1OEV,1ONY,1ONZ,1PH0,1PXH,1PYN,1Q1M,1Q6J,1Q6M,1Q6N,1Q6P,1Q6S,1Q6T,1QXK,1SUG,1T48,1T49,1T4J,1WAX,1XBO,2AZR,2B07,2BGD,2BGE,
2CM2,2CM3,2CM7,2CM8,2CMA,2CMB,2CMC,2CNE,2CNF,2CNG,2CNH,2CNI,2F6T,2F6V,2F6W,2F6Y,2F6Z,2F70,2F71,2FJN,2H4G,2H4K,2HB1,2HNP,2HNQ,2QBP,2QBQ,2QBR,2QBS,2VEU,2VEV,2VEW,2VEX,2VEY,2ZMM,2ZN7,3A5J,3CWE,3D9C,3EAX,
3EB1,3EU0,3I7Z,3I80,3SME,4BJO,4I8N,4QBW,4Y14,5K9V,5K9W,5KA0,5KA1,5T19,6B90,6NTP,6W30,7KEY,7KLX,7LFO,7MN9,7MNA,8DU7,8G65,8G67,8G68,8G69,8G6A,8SKL

> <UniProt (SwissProt) Recommended Name of Target Chain>
Tyrosine-protein phosphatase non-receptor type 1

> <UniProt (SwissProt) Entry Name of Target Chain>
PTN1_HUMAN

> <UniProt (SwissProt) Primary ID of Target Chain>
P18031

> <UniProt (SwissProt) Secondary ID(s) of Target Chain>
Q5TGD8 Q9BQV9 Q9NQQ4

$$$$
Molecule
  SciTegic10242319433D

 38 40  0  0  0  0            999 V2000
   -3.6134    2.8805    0.0001 C   0  0
   -4.2950    1.5671    0.0001 N   0  0
   -3.3319    0.4763    0.0000 C   0  0
   -1.7917    1.1036    0.0000 S   0  0
   -2.1314    2.7413    0.0000 C   0  0
   -4.1903    3.9745    0.0001 O   0  0
   -3.6193   -1.0645    0.0001 S   0  0
   -1.2450    3.7520    0.0000 C   0  0
    0.2471    3.5576   -0.0001 C   0  0
   -5.7265    1.3872    0.0001 C   0  0
   -6.6427    2.5400    0.0003 C   0  0
   -7.9634    2.3468    0.0003 C   0  0
   -8.5079    0.9838    0.0001 C   0  0
   -7.6812   -0.0561   -0.0001 C   0  0
   -6.2447    0.1599   -0.0001 C   0  0
    1.0531    4.6200   -0.0002 C   0  0
    0.8423    2.2207    0.0000 C   0  0
    2.1571    2.0386   -0.0001 C   0  0
    3.0500    3.2169   -0.0002 C   0  0
    2.5242    4.4413   -0.0003 C   0  0
    3.3863    5.5479   -0.0004 O   0  0
    2.6520    6.7770   -0.0004 C   0  0
    4.4366    3.0768   -0.0003 O   0  0
    2.6542    0.7124   -0.0001 N   0  0
    1.6953    0.0291    0.0000 O   0  0
    3.8236    0.7847   -0.0001 O   0  0
  -10.2161    0.7229    0.0001 Cl  0  0
   -8.3072   -1.6668   -0.0005 Cl  0  0
   -1.6296    4.7719    0.0000 H   0  0
   -6.2415    3.5534    0.0005 H   0  0
   -8.6386    3.2025    0.0005 H   0  0
   -5.5762   -0.7010   -0.0003 H   0  0
    0.6283    5.6238   -0.0002 H   0  0
    0.1872    1.3495    0.0000 H   0  0
    3.3473    7.6163   -0.0005 H   0  0
    2.0244    6.8259    0.8895 H   0  0
    2.0243    6.8258   -0.8903 H   0  0
    4.7356    2.5493    0.8569 H   0  0
  1  2  1  0
  2  3  1  0
  3  4  1  0
  4  5  1  0
  1  5  1  0
  1  6  2  0
  3  7  2  0
  5  8  2  0
  8  9  1  0
  2 10  1  0
 15 10  2  0
 11 10  1  0
 11 12  2  0
 12 13  1  0
 13 14  2  0
 14 15  1  0
 16  9  2  0
  9 17  1  0
 17 18  2  0
 18 19  1  0
 19 20  2  0
 16 20  1  0
 20 21  1  0
 21 22  1  0
 19 23  1  0
 18 24  1  0
 24 25  2  0
 24 26  2  0
 13 27  1  0
 14 28  1  0
  8 29  1  0
 11 30  1  0
 12 31  1  0
 15 32  1  0
 16 33  1  0
 17 34  1  0
 22 35  1  0
 22 36  1  0
 22 37  1  0
 23 38  1  0
M  END
> <Name>
Molecule

> <Clean Energy>
43.4805

> <From>
www.bindingDB.org

> <BindingDB Reactant_set_id>
169653

> <Ligand InChI>
InChI=1S/C17H10Cl2N2O5S2/c1-26-13-5-8(4-12(15(13)22)21(24)25)6-14-16(23)20(17(27)28-14)9-2-3-10(18)11(19)7-9/h2-7,22H,1H3/b14-6-

> <Ligand InChI Key>
HDKKYHKRLXLXTL-NSIKDUERSA-N

> <BindingDB MonomerID>
84591

> <BindingDB Ligand Name>
Thioxothiazolidinone derivative, 12

> <Target Name>
Tyrosine-protein phosphatase non-receptor type 1

> <Target Source Organism According to Curator or DataSource>
Homo sapiens

> <IC50 (nM)>
7000

> <Temp C>
25

> <Curation/DataSource>
Curated from the literature by BindingDB

> <Article DOI>
10.1002/cbic.200600287

> <BindingDB Entry DOI>
10.7270/Q2T72FZ5

> <PMID>
17191286

> <PubChem AID>
aid1799621

> <Authors>
Stuible, M; Zhao, L; Aubry, I; Schmidt-Arras, D; B&ouml;hmer, FD; Li, CJ; Tremblay, ML

> <Institution>
McGill University

> <Link to Ligand in BindingDB>
http://www.bindingdb.org/bind/chemsearch/marvin/MolStructure.jsp?monomerid=84591

> <Link to Ligand-Target Pair in BindingDB>
http://www.bindingdb.org/jsp/dbsearch/PrimarySearch_ki.jsp?energyterm=kJ/mole&tag=pol&polymerid=2622&target=Tyrosine-protein+phosphatase+non-receptor+type+1&column=ki&startPg=0&Increment=50&submit=Sea
rch
http://www.bindingdb.org/jsp/dbsearch/PrimarySearch_ki.jsp?energyterm=kJ/mole&tag=r21&monomerid=84591&enzyme=Tyrosine-protein+phosphatase+non-receptor+type+1&column=ki&startPg=0&Increment=50&submit=Se
arch

> <PubChem CID of Ligand>
57339766

> <PubChem SID of Ligand>
136350691

> <KEGG ID of Ligand>
C06058

> <ZINC ID of Ligand>
ZINC87722321

> <Number of Protein Chains in Target (bigger than 1 implies a multichain complex)>
1

> <BindingDB Target Chain Sequence>
MEMEKEFEQIDKSGSWAAIYQDIRHEASDFPCRVAKLPKNKNRNRYRDVSPFDHSRIKLHQEDNDYINASLIKMEEAQRSYILTQGPLPNTCGHFWEMVWEQKSRGVVMLNRVMEKGSLKCAQYWPQKEEKEMIFEDTNLKLTLISEDIKSYYTVRQLELENLTTQETREILHFHYTTWPDFGVPESPASFLNFLFKVRE
SGSLSPEHGPVVVHCSAGIGRSGTFCLADTCLLLMDKRKDPSSVDIKKVLLEMRKFRMGLIQTADQLRFSYLAVIEGAKFIMGDSSVQDQWKELSHEDLEPPPEHIPPPPRPPKRILEPHNGKCREFFPNHQWVKEETQEDKDCPIKEEKGSPLNAAPYGIESMSQDTEVRSRVVGGSLRGAQAASPAKGEPSLPEKDED
HALSYWKPFLVNMCVATVLTAGAYLCYRFLFNSNT

> <PDB ID(s) of Target Chain>
1BZJ,1G7G,1GFY,1JF7,1KAK,1KAV,1LQF,1NL9,1NNY,1NO6,1NZ7,1OEM,1OEO,1OES,1OET,1OEU,1OEV,1ONY,1ONZ,1PH0,1PXH,1PYN,1Q1M,1Q6J,1Q6M,1Q6N,1Q6P,1Q6S,1Q6T,1QXK,1SUG,1T48,1T49,1T4J,1WAX,1XBO,2AZR,2B07,2BGD,2BGE,
2CM2,2CM3,2CM7,2CM8,2CMA,2CMB,2CMC,2CNE,2CNF,2CNG,2CNH,2CNI,2F6T,2F6V,2F6W,2F6Y,2F6Z,2F70,2F71,2FJN,2H4G,2H4K,2HB1,2HNP,2HNQ,2QBP,2QBQ,2QBR,2QBS,2VEU,2VEV,2VEW,2VEX,2VEY,2ZMM,2ZN7,3A5J,3CWE,3D9C,3EAX,
3EB1,3EU0,3I7Z,3I80,3SME,4BJO,4I8N,4QBW,4Y14,5K9V,5K9W,5KA0,5KA1,5T19,6B90,6NTP,6W30,7KEY,7KLX,7LFO,7MN9,7MNA,8DU7,8G65,8G67,8G68,8G69,8G6A,8SKL

> <UniProt (SwissProt) Recommended Name of Target Chain>
Tyrosine-protein phosphatase non-receptor type 1

> <UniProt (SwissProt) Entry Name of Target Chain>
PTN1_HUMAN

> <UniProt (SwissProt) Primary ID of Target Chain>
P18031

> <UniProt (SwissProt) Secondary ID(s) of Target Chain>
Q5TGD8 Q9BQV9 Q9NQQ4

$$$$
Molecule
  SciTegic10242319433D

 58 64  0  0  0  0            999 V2000
   14.2863  -10.3633    1.3080 O   0  0
   14.6255   -9.5899    0.0485 S   0  0
   14.2274  -10.4589   -1.1288 O   0  0
    0.5730   -7.6058   -1.2990 O   0  0
    0.6063   -8.4637   -0.0485 S   0  0
    0.5837   -7.5203    1.1391 O   0  0
    3.4122   -7.3940   -0.0147 C   0  0
    3.3606   -8.7354   -0.0174 C   0  0
    4.6583   -9.5138   -0.0132 C   0  0
    4.7206   -6.6898   -0.0069 C   0  0
    5.8235   -7.4328   -0.0036 C   0  0
    5.7991   -8.8127   -0.0067 C   0  0
    7.1418   -9.2656   -0.0023 N   0  0
    7.8855   -8.2065    0.0030 C   0  0
    7.1117   -7.0276    0.0028 O   0  0
    2.0768   -9.4008   -0.0252 N   0  0
   -0.9130   -9.4300   -0.0069 C   0  0
    9.4012   -8.2022    0.0084 C   0  0
   10.0967   -9.3442    0.0107 C   0  0
   11.5909   -9.3183    0.0157 C   0  0
   12.2538   -8.1569    0.0169 C   0  0
   11.4792   -6.9002    0.0143 C   0  0
   10.1397   -6.9220    0.0106 C   0  0
   13.7039   -8.1226    0.0218 N   0  0
   16.4209   -9.3882   -0.0002 C   0  0
   -2.0872   -8.7839   -0.0140 C   0  0
   17.1770  -10.4974   -0.0578 C   0  0
   18.6561  -10.4215   -0.0967 C   0  0
   -0.8929  -10.9288    0.0360 C   0  0
   -2.0401  -11.6266    0.0674 C   0  0
   17.0856   -8.0535    0.0261 C   0  0
   -3.3018  -10.8923    0.0587 C   0  0
   -3.3030   -9.5757    0.0207 C   0  0
   -4.8661   -9.0671    0.0216 S   0  0
   -5.5915  -10.5979    0.0731 C   0  0
   -4.6491  -11.4836    0.0893 N   0  0
   18.4201   -8.0483   -0.0103 C   0  0
   19.2151   -9.2200   -0.0716 C   0  0
   20.6503   -8.9420   -0.1015 N   0  0
   20.9255   -7.6773   -0.0664 C   0  0
   19.4656   -6.7827    0.0037 S   0  0
    2.4873   -6.8171   -0.0182 H   0  0
    4.6642  -10.6038   -0.0153 H   0  0
    4.7746   -5.6011   -0.0041 H   0  0
    2.0290  -10.4697   -0.0167 H   0  0
    9.5711  -10.2991    0.0088 H   0  0
   12.1464  -10.2562    0.0185 H   0  0
   12.0029   -5.9442    0.0152 H   0  0
    9.5869   -5.9825    0.0094 H   0  0
   14.2105   -7.1802    0.0087 H   0  0
   -2.1279   -7.6951   -0.0450 H   0  0
   16.6920  -11.4734   -0.0764 H   0  0
   19.2648  -11.3245   -0.1443 H   0  0
    0.0608  -11.4564    0.0418 H   0  0
   -2.0292  -12.7161    0.0987 H   0  0
   16.5108   -7.1286    0.0728 H   0  0
   -6.6624  -10.8002    0.0898 H   0  0
   21.9278   -7.2492   -0.0792 H   0  0
  2  1  2  0
  3  2  2  0
  5  4  2  0
  6  5  2  0
  7  8  2  0
  8  9  1  0
  9 12  2  0
 11 10  2  0
 10  7  1  0
 11 12  1  0
 12 13  1  0
 13 14  2  0
 14 15  1  0
 15 11  1  0
  8 16  1  0
 16  5  1  0
  5 17  1  0
 18 19  2  0
 19 20  1  0
 20 21  2  0
 21 22  1  0
 22 23  2  0
 23 18  1  0
 14 18  1  0
 21 24  1  0
 24  2  1  0
  2 25  1  0
 17 26  2  0
 26 33  1  0
 32 30  1  0
 29 17  1  0
 25 27  2  0
 27 28  1  0
 28 38  2  0
 31 25  1  0
 29 30  2  0
 31 37  2  0
 32 33  2  0
 33 34  1  0
 34 35  1  0
 35 36  2  0
 36 32  1  0
 37 38  1  0
 38 39  1  0
 39 40  2  0
 40 41  1  0
 41 37  1  0
  7 42  1  0
  9 43  1  0
 10 44  1  0
 16 45  1  0
 19 46  1  0
 20 47  1  0
 22 48  1  0
 23 49  1  0
 24 50  1  0
 26 51  1  0
 27 52  1  0
 28 53  1  0
 29 54  1  0
 30 55  1  0
 31 56  1  0
 35 57  1  0
 40 58  1  0
M  END
> <Name>
Molecule

> <Clean Energy>
80.8924

> <From>
www.bindingDB.org

> <BindingDB Reactant_set_id>
51280806

> <Ligand InChI>
InChI=1S/C27H17N5O5S4/c33-40(34,19-6-8-21-25(12-19)38-14-28-21)31-17-3-1-16(2-4-17)27-30-23-11-18(5-10-24(23)37-27)32-41(35,36)20-7-9-22-26(13-20)39-15-29-22/h1-15,31-32H

> <Ligand InChI Key>
JTUYIPCRQVQRHO-UHFFFAOYSA-N

> <BindingDB MonomerID>
50501263

> <BindingDB Ligand Name>
CHEMBL3951335

> <Target Name>
Tyrosine-protein phosphatase non-receptor type 1

> <Target Source Organism According to Curator or DataSource>
Homo sapiens

> <IC50 (nM)>
7000

> <Curation/DataSource>
ChEMBL

> <Article DOI>
10.1016/j.bmcl.2019.04.034

> <BindingDB Entry DOI>
10.7270/Q2MG7SWV

> <PMID>
31047750

> <Authors>
Washburn, A; Abdeen, S; Ovechkina, Y; Ray, AM; Stevens, M; Chitre, S; Sivinski, J; Park, Y; Johnson, J; Hoang, QQ; Chapman, E; Parish, T; Johnson, SM

> <Institution>
Indiana University School of Medicine

> <Link to Ligand in BindingDB>
http://www.bindingdb.org/bind/chemsearch/marvin/MolStructure.jsp?monomerid=50501263

> <Link to Ligand-Target Pair in BindingDB>
http://www.bindingdb.org/jsp/dbsearch/PrimarySearch_ki.jsp?energyterm=kJ/mole&tag=pol&polymerid=2622&target=Tyrosine-protein+phosphatase+non-receptor+type+1&column=ki&startPg=0&Increment=50&submit=Sea
rch
http://www.bindingdb.org/jsp/dbsearch/PrimarySearch_ki.jsp?energyterm=kJ/mole&tag=r21&monomerid=50501263&enzyme=Tyrosine-protein+phosphatase+non-receptor+type+1&column=ki&startPg=0&Increment=50&submit
=Search

> <PubChem CID of Ligand>
134143988

> <PubChem SID of Ligand>
433913164

> <Number of Protein Chains in Target (bigger than 1 implies a multichain complex)>
1

> <BindingDB Target Chain Sequence>
MEMEKEFEQIDKSGSWAAIYQDIRHEASDFPCRVAKLPKNKNRNRYRDVSPFDHSRIKLHQEDNDYINASLIKMEEAQRSYILTQGPLPNTCGHFWEMVWEQKSRGVVMLNRVMEKGSLKCAQYWPQKEEKEMIFEDTNLKLTLISEDIKSYYTVRQLELENLTTQETREILHFHYTTWPDFGVPESPASFLNFLFKVRE
SGSLSPEHGPVVVHCSAGIGRSGTFCLADTCLLLMDKRKDPSSVDIKKVLLEMRKFRMGLIQTADQLRFSYLAVIEGAKFIMGDSSVQDQWKELSHEDLEPPPEHIPPPPRPPKRILEPHNGKCREFFPNHQWVKEETQEDKDCPIKEEKGSPLNAAPYGIESMSQDTEVRSRVVGGSLRGAQAASPAKGEPSLPEKDED
HALSYWKPFLVNMCVATVLTAGAYLCYRFLFNSNT

> <PDB ID(s) of Target Chain>
1BZJ,1G7G,1GFY,1JF7,1KAK,1KAV,1LQF,1NL9,1NNY,1NO6,1NZ7,1OEM,1OEO,1OES,1OET,1OEU,1OEV,1ONY,1ONZ,1PH0,1PXH,1PYN,1Q1M,1Q6J,1Q6M,1Q6N,1Q6P,1Q6S,1Q6T,1QXK,1SUG,1T48,1T49,1T4J,1WAX,1XBO,2AZR,2B07,2BGD,2BGE,
2CM2,2CM3,2CM7,2CM8,2CMA,2CMB,2CMC,2CNE,2CNF,2CNG,2CNH,2CNI,2F6T,2F6V,2F6W,2F6Y,2F6Z,2F70,2F71,2FJN,2H4G,2H4K,2HB1,2HNP,2HNQ,2QBP,2QBQ,2QBR,2QBS,2VEU,2VEV,2VEW,2VEX,2VEY,2ZMM,2ZN7,3A5J,3CWE,3D9C,3EAX,
3EB1,3EU0,3I7Z,3I80,3SME,4BJO,4I8N,4QBW,4Y14,5K9V,5K9W,5KA0,5KA1,5T19,6B90,6NTP,6W30,7KEY,7KLX,7LFO,7MN9,7MNA,8DU7,8G65,8G67,8G68,8G69,8G6A,8SKL

> <UniProt (SwissProt) Recommended Name of Target Chain>
Tyrosine-protein phosphatase non-receptor type 1

> <UniProt (SwissProt) Entry Name of Target Chain>
PTN1_HUMAN

> <UniProt (SwissProt) Primary ID of Target Chain>
P18031

> <UniProt (SwissProt) Secondary ID(s) of Target Chain>
Q5TGD8 Q9BQV9 Q9NQQ4

$$$$
Molecule
  SciTegic10242319433D

 40 42  0  0  0  0            999 V2000
   -3.5139    2.8624    0.0001 C   0  0
   -4.1905    1.5436    0.0001 N   0  0
   -3.2179    0.4588    0.0000 C   0  0
   -1.6801    1.0937    0.0000 S   0  0
   -2.0241    2.7281    0.0000 C   0  0
   -4.0975    3.9530    0.0002 O   0  0
   -3.4938   -1.0841    0.0001 S   0  0
   -1.1352    3.7379    0.0000 C   0  0
    0.3635    3.5431   -0.0001 C   0  0
   -5.6269    1.3463    0.0001 C   0  0
   -6.5677    2.4841    0.0004 C   0  0
   -7.8864    2.2630    0.0004 C   0  0
   -8.4043    0.8842    0.0001 C   0  0
   -7.5550   -0.1352   -0.0001 C   0  0
   -6.1246    0.1102   -0.0002 C   0  0
    1.1682    4.6069   -0.0002 C   0  0
    0.9643    2.2044    0.0000 C   0  0
    2.2834    2.0279   -0.0001 C   0  0
    3.1702    3.2101   -0.0002 C   0  0
    2.6415    4.4319   -0.0003 C   0  0
    3.5014    5.5406   -0.0004 O   0  0
    2.7659    6.7684   -0.0004 C   0  0
    4.5587    3.0753   -0.0003 O   0  0
    2.7866    0.7030   -0.0001 N   0  0
    1.8353    0.0138    0.0000 O   0  0
    3.9583    0.7834   -0.0001 O   0  0
   -9.7829    0.6305    0.0002 N   0  0
   -9.8836   -0.5423   -0.0002 O   0  0
  -10.2991    1.6855    0.0005 O   0  0
   -1.5191    4.7581    0.0000 H   0  0
   -6.1868    3.5054    0.0006 H   0  0
   -8.5792    3.1045    0.0007 H   0  0
   -7.9320   -1.1579   -0.0004 H   0  0
   -5.4401   -0.7380   -0.0004 H   0  0
    0.7412    5.6098   -0.0002 H   0  0
    0.3125    1.3308    0.0000 H   0  0
    3.4603    7.6085   -0.0005 H   0  0
    2.1383    6.8165    0.8895 H   0  0
    2.1382    6.8164   -0.8903 H   0  0
    4.8597    2.5489    0.8569 H   0  0
  1  2  1  0
  2  3  1  0
  3  4  1  0
  4  5  1  0
  1  5  1  0
  1  6  2  0
  3  7  2  0
  5  8  2  0
  8  9  1  0
  2 10  1  0
 15 10  2  0
 11 10  1  0
 11 12  2  0
 12 13  1  0
 13 14  2  0
 14 15  1  0
 16  9  2  0
  9 17  1  0
 17 18  2  0
 18 19  1  0
 19 20  2  0
 16 20  1  0
 20 21  1  0
 21 22  1  0
 19 23  1  0
 18 24  1  0
 24 25  2  0
 24 26  2  0
 13 27  1  0
 27 28  2  0
 27 29  2  0
  8 30  1  0
 11 31  1  0
 12 32  1  0
 14 33  1  0
 15 34  1  0
 16 35  1  0
 17 36  1  0
 22 37  1  0
 22 38  1  0
 22 39  1  0
 23 40  1  0
M  END
> <Name>
Molecule

> <Clean Energy>
62.5365

> <From>
www.bindingDB.org

> <BindingDB Reactant_set_id>
169652

> <Ligand InChI>
InChI=1S/C17H11N3O7S2/c1-27-13-7-9(6-12(15(13)21)20(25)26)8-14-16(22)18(17(28)29-14)10-2-4-11(5-3-10)19(23)24/h2-8,21H,1H3/b14-8-

> <Ligand InChI Key>
CASHYUSWRDDTCR-ZSOIEALJSA-N

> <BindingDB MonomerID>
84590

> <BindingDB Ligand Name>
Thioxothiazolidinone derivative, 11

> <Target Name>
Tyrosine-protein phosphatase non-receptor type 1

> <Target Source Organism According to Curator or DataSource>
Homo sapiens

> <IC50 (nM)>
7000

> <Temp C>
25

> <Curation/DataSource>
Curated from the literature by BindingDB

> <Article DOI>
10.1002/cbic.200600287

> <BindingDB Entry DOI>
10.7270/Q2T72FZ5

> <PMID>
17191286

> <PubChem AID>
aid1799621

> <Authors>
Stuible, M; Zhao, L; Aubry, I; Schmidt-Arras, D; B&ouml;hmer, FD; Li, CJ; Tremblay, ML

> <Institution>
McGill University

> <Link to Ligand in BindingDB>
http://www.bindingdb.org/bind/chemsearch/marvin/MolStructure.jsp?monomerid=84590

> <Link to Ligand-Target Pair in BindingDB>
http://www.bindingdb.org/jsp/dbsearch/PrimarySearch_ki.jsp?energyterm=kJ/mole&tag=pol&polymerid=2622&target=Tyrosine-protein+phosphatase+non-receptor+type+1&column=ki&startPg=0&Increment=50&submit=Sea
rch
http://www.bindingdb.org/jsp/dbsearch/PrimarySearch_ki.jsp?energyterm=kJ/mole&tag=r21&monomerid=84590&enzyme=Tyrosine-protein+phosphatase+non-receptor+type+1&column=ki&startPg=0&Increment=50&submit=Se
arch

> <PubChem CID of Ligand>
6252955

> <PubChem SID of Ligand>
136350690

> <KEGG ID of Ligand>
C06058

> <ZINC ID of Ligand>
ZINC33658203

> <Number of Protein Chains in Target (bigger than 1 implies a multichain complex)>
1

> <BindingDB Target Chain Sequence>
MEMEKEFEQIDKSGSWAAIYQDIRHEASDFPCRVAKLPKNKNRNRYRDVSPFDHSRIKLHQEDNDYINASLIKMEEAQRSYILTQGPLPNTCGHFWEMVWEQKSRGVVMLNRVMEKGSLKCAQYWPQKEEKEMIFEDTNLKLTLISEDIKSYYTVRQLELENLTTQETREILHFHYTTWPDFGVPESPASFLNFLFKVRE
SGSLSPEHGPVVVHCSAGIGRSGTFCLADTCLLLMDKRKDPSSVDIKKVLLEMRKFRMGLIQTADQLRFSYLAVIEGAKFIMGDSSVQDQWKELSHEDLEPPPEHIPPPPRPPKRILEPHNGKCREFFPNHQWVKEETQEDKDCPIKEEKGSPLNAAPYGIESMSQDTEVRSRVVGGSLRGAQAASPAKGEPSLPEKDED
HALSYWKPFLVNMCVATVLTAGAYLCYRFLFNSNT

> <PDB ID(s) of Target Chain>
1BZJ,1G7G,1GFY,1JF7,1KAK,1KAV,1LQF,1NL9,1NNY,1NO6,1NZ7,1OEM,1OEO,1OES,1OET,1OEU,1OEV,1ONY,1ONZ,1PH0,1PXH,1PYN,1Q1M,1Q6J,1Q6M,1Q6N,1Q6P,1Q6S,1Q6T,1QXK,1SUG,1T48,1T49,1T4J,1WAX,1XBO,2AZR,2B07,2BGD,2BGE,
2CM2,2CM3,2CM7,2CM8,2CMA,2CMB,2CMC,2CNE,2CNF,2CNG,2CNH,2CNI,2F6T,2F6V,2F6W,2F6Y,2F6Z,2F70,2F71,2FJN,2H4G,2H4K,2HB1,2HNP,2HNQ,2QBP,2QBQ,2QBR,2QBS,2VEU,2VEV,2VEW,2VEX,2VEY,2ZMM,2ZN7,3A5J,3CWE,3D9C,3EAX,
3EB1,3EU0,3I7Z,3I80,3SME,4BJO,4I8N,4QBW,4Y14,5K9V,5K9W,5KA0,5KA1,5T19,6B90,6NTP,6W30,7KEY,7KLX,7LFO,7MN9,7MNA,8DU7,8G65,8G67,8G68,8G69,8G6A,8SKL

> <UniProt (SwissProt) Recommended Name of Target Chain>
Tyrosine-protein phosphatase non-receptor type 1

> <UniProt (SwissProt) Entry Name of Target Chain>
PTN1_HUMAN

> <UniProt (SwissProt) Primary ID of Target Chain>
P18031

> <UniProt (SwissProt) Secondary ID(s) of Target Chain>
Q5TGD8 Q9BQV9 Q9NQQ4

$$$$
Molecule
  SciTegic10242319433D

 53 55  0  0  0  0            999 V2000
    6.8463   -2.3625    0.1468 S   0  0
    6.7828   -0.5662    0.1264 C   0  0
   -1.9198   -5.8830    0.6903 P   0  0
    7.9365    0.1370    0.0001 C   0  0
   -1.1340   -5.3766   -0.6814 C   0  0
    9.2369   -0.4660   -0.1243 N   0  3
    5.3967   -3.3879    0.4447 N   0  0
    7.8517   -2.6691    1.2385 O   0  0
    7.3999   -2.7599   -1.2095 O   0  0
    0.2081   -4.7189   -0.4006 C   0  0
    9.4341   -1.7631   -0.2341 O   0  5
   -2.1949   -4.7988    1.4975 O   0  0
    4.1458   -2.7549   -0.1493 C   0  0
   10.1781    0.2403   -0.1627 O   0  0
    5.6255   -4.7505   -0.2451 C   0  0
   -1.9416   -4.4975   -1.3722 F   0  0
   -0.9044   -6.5143   -1.4268 F   0  0
   -3.2521   -6.5609    0.2666 O   0  0
   -1.0548   -6.9076    1.4635 O   0  0
    0.3933   -3.4524   -0.7646 C   0  0
    1.3295   -5.4772    0.1703 C   0  0
    2.7518   -3.4933   -0.1368 C   0  0
    5.5152    0.1723    0.2331 C   0  0
    7.8910    1.5982   -0.0261 C   0  0
    6.8876   -5.6346   -0.0172 C   0  0
    2.5292   -4.9026    0.3045 C   0  0
    1.7105   -2.8198   -0.6273 C   0  0
    6.7999   -6.9309   -0.3131 C   0  0
    8.1807   -5.1186    0.4323 C   0  0
    5.4947    1.5022    0.1977 C   0  0
    6.7374    2.2483    0.0641 C   0  0
    9.2459   -5.9058    0.5482 C   0  0
    7.9672   -7.8128   -0.1685 C   0  0
    9.1350   -7.3197    0.2370 C   0  0
    3.9981   -1.8142    0.3813 H   0  0
    4.3741   -2.5507   -1.1954 H   0  0
    4.7742   -5.3712    0.0345 H   0  0
    5.5933   -4.5499   -1.3160 H   0  0
   -3.8466   -5.8700   -0.2546 H   0  0
   -0.8666   -7.7399    0.8516 H   0  0
   -0.4413   -2.8794   -1.1686 H   0  0
    1.1831   -6.5105    0.4851 H   0  0
    4.5803   -0.3772    0.3425 H   0  0
    8.8188    2.1624   -0.1213 H   0  0
    3.3528   -5.4681    0.7402 H   0  0
    1.8399   -1.7812   -0.9317 H   0  0
    5.8537   -7.3413   -0.6657 H   0  0
    8.2733   -4.0608    0.6787 H   0  0
    4.5458    2.0339    0.2689 H   0  0
    6.7205    3.3378    0.0383 H   0  0
   10.1993   -5.4911    0.8758 H   0  0
    7.8759   -8.8752   -0.3945 H   0  0
   10.0022   -7.9728    0.3348 H   0  0
  2  1  1  0
  3  5  1  0
  4  2  2  0
  5 10  1  0
  6  4  1  0
  7  1  1  0
  8  1  2  0
  9  1  2  0
 10 20  2  0
 11  6  1  0
 12  3  2  0
 13  7  1  0
 14  6  2  0
 15  7  1  0
 16  5  1  0
 17  5  1  0
 18  3  1  0
 19  3  1  0
 20 27  1  0
 21 26  2  0
 22 13  1  0
 23  2  1  0
 24  4  1  0
 25 15  1  0
 26 22  1  0
 27 22  2  0
 28 25  2  0
 29 25  1  0
 30 23  2  0
 31 30  1  0
 32 29  2  0
 33 28  1  0
 34 32  1  0
 24 31  2  0
 21 10  1  0
 33 34  2  0
 13 35  1  0
 13 36  1  0
 15 37  1  0
 15 38  1  0
 18 39  1  0
 19 40  1  0
 20 41  1  0
 21 42  1  0
 23 43  1  0
 24 44  1  0
 26 45  1  0
 27 46  1  0
 28 47  1  0
 29 48  1  0
 30 49  1  0
 31 50  1  0
 32 51  1  0
 33 52  1  0
 34 53  1  0
M  CHG  2   6   1  11  -1
M  END
> <Name>
Molecule

> <Clean Energy>
45.6955

> <From>
www.bindingDB.org

> <BindingDB Reactant_set_id>
50315611

> <Ligand InChI>
InChI=1S/C21H19F2N2O7PS/c22-21(23,33(28,29)30)18-12-10-17(11-13-18)15-24(14-16-6-2-1-3-7-16)34(31,32)20-9-5-4-8-19(20)25(26)27/h1-13H,14-15H2,(H2,28,29,30)

> <Ligand InChI Key>
QUCQYWKXRBMJNM-UHFFFAOYSA-N

> <BindingDB MonomerID>
50171111

> <BindingDB Ligand Name>
CHEMBL199124::[(4-{[Benzyl-(2-nitro-benzenesulfonyl)-amino]-methyl}-phenyl)-difluoro-methyl]-phosphonic acid

> <Target Name>
Tyrosine-protein phosphatase non-receptor type 1

> <Target Source Organism According to Curator or DataSource>
Homo sapiens

> <IC50 (nM)>
7000

> <Curation/DataSource>
ChEMBL

> <Article DOI>
10.1016/j.bmcl.2005.06.061

> <BindingDB Entry DOI>
10.7270/Q2M61JSK

> <PMID>
16046123

> <Authors>
Holmes, CP; Li, X; Pan, Y; Xu, C; Bhandari, A; Moody, CM; Miguel, JA; Ferla, SW; De Francisco, MN; Frederick, BT; Zhou, S; Macher, N; Jang, L; Irvine, JD; Grove, JR

> <Institution>
Affymax, Inc.

> <Link to Ligand in BindingDB>
http://www.bindingdb.org/bind/chemsearch/marvin/MolStructure.jsp?monomerid=50171111

> <Link to Ligand-Target Pair in BindingDB>
http://www.bindingdb.org/jsp/dbsearch/PrimarySearch_ki.jsp?energyterm=kJ/mole&tag=pol&polymerid=2622&target=Tyrosine-protein+phosphatase+non-receptor+type+1&column=ki&startPg=0&Increment=50&submit=Sea
rch
http://www.bindingdb.org/jsp/dbsearch/PrimarySearch_ki.jsp?energyterm=kJ/mole&tag=r21&monomerid=50171111&enzyme=Tyrosine-protein+phosphatase+non-receptor+type+1&column=ki&startPg=0&Increment=50&submit
=Search

> <PubChem CID of Ligand>
44404304

> <PubChem SID of Ligand>
104057408

> <ChEMBL ID of Ligand>
CHEMBL199124

> <ZINC ID of Ligand>
ZINC28528884

> <Number of Protein Chains in Target (bigger than 1 implies a multichain complex)>
1

> <BindingDB Target Chain Sequence>
MEMEKEFEQIDKSGSWAAIYQDIRHEASDFPCRVAKLPKNKNRNRYRDVSPFDHSRIKLHQEDNDYINASLIKMEEAQRSYILTQGPLPNTCGHFWEMVWEQKSRGVVMLNRVMEKGSLKCAQYWPQKEEKEMIFEDTNLKLTLISEDIKSYYTVRQLELENLTTQETREILHFHYTTWPDFGVPESPASFLNFLFKVRE
SGSLSPEHGPVVVHCSAGIGRSGTFCLADTCLLLMDKRKDPSSVDIKKVLLEMRKFRMGLIQTADQLRFSYLAVIEGAKFIMGDSSVQDQWKELSHEDLEPPPEHIPPPPRPPKRILEPHNGKCREFFPNHQWVKEETQEDKDCPIKEEKGSPLNAAPYGIESMSQDTEVRSRVVGGSLRGAQAASPAKGEPSLPEKDED
HALSYWKPFLVNMCVATVLTAGAYLCYRFLFNSNT

> <PDB ID(s) of Target Chain>
1BZJ,1G7G,1GFY,1JF7,1KAK,1KAV,1LQF,1NL9,1NNY,1NO6,1NZ7,1OEM,1OEO,1OES,1OET,1OEU,1OEV,1ONY,1ONZ,1PH0,1PXH,1PYN,1Q1M,1Q6J,1Q6M,1Q6N,1Q6P,1Q6S,1Q6T,1QXK,1SUG,1T48,1T49,1T4J,1WAX,1XBO,2AZR,2B07,2BGD,2BGE,
2CM2,2CM3,2CM7,2CM8,2CMA,2CMB,2CMC,2CNE,2CNF,2CNG,2CNH,2CNI,2F6T,2F6V,2F6W,2F6Y,2F6Z,2F70,2F71,2FJN,2H4G,2H4K,2HB1,2HNP,2HNQ,2QBP,2QBQ,2QBR,2QBS,2VEU,2VEV,2VEW,2VEX,2VEY,2ZMM,2ZN7,3A5J,3CWE,3D9C,3EAX,
3EB1,3EU0,3I7Z,3I80,3SME,4BJO,4I8N,4QBW,4Y14,5K9V,5K9W,5KA0,5KA1,5T19,6B90,6NTP,6W30,7KEY,7KLX,7LFO,7MN9,7MNA,8DU7,8G65,8G67,8G68,8G69,8G6A,8SKL

> <UniProt (SwissProt) Recommended Name of Target Chain>
Tyrosine-protein phosphatase non-receptor type 1

> <UniProt (SwissProt) Entry Name of Target Chain>
PTN1_HUMAN

> <UniProt (SwissProt) Primary ID of Target Chain>
P18031

> <UniProt (SwissProt) Secondary ID(s) of Target Chain>
Q5TGD8 Q9BQV9 Q9NQQ4

$$$$
Molecule
  SciTegic10242319433D

 82 86  0  0  0  0            999 V2000
    6.5637  -18.1669    0.0725 C   0  0  1  0  0  0
    6.6544  -19.6675   -0.3806 C   0  0  1  0  0  0
    7.8087  -20.4250    0.3442 C   0  0
    7.9114  -17.4380   -0.3181 C   0  0
    9.1180  -18.0798    0.4038 C   0  0  1  0  0  0
    9.1517  -19.6359    0.0035 C   0  0  1  0  0  0
   10.3943  -20.3439    0.6557 C   0  0
   11.7134  -19.7001    0.1012 C   0  0
   10.4921  -17.4759   -0.1259 C   0  0  2  0  0  0
   11.8171  -18.1999    0.4575 C   0  0  2  0  0  0
   11.9448  -15.3515    0.1148 C   0  0
   10.5454  -15.9697    0.1929 C   0  0
   13.0964  -16.0325   -0.0641 C   0  0
   13.0600  -17.5667   -0.2694 C   0  0  1  0  0  0
   14.4083  -18.2173    0.1588 C   0  0
   15.4125  -17.5562   -0.7746 C   0  0
   14.4882  -15.3042    0.1678 C   0  0  1  0  0  0
   15.7669  -16.0976   -0.4084 C   0  0  2  0  0  0
   16.2689  -15.3489   -1.6208 C   0  0
   16.6619  -13.8394   -1.2705 C   0  0
   15.9205  -13.1775   -0.0042 C   0  0  2  0  0  0
   14.5182  -13.6608   -0.0839 C   0  0  2  0  0  0
   16.8720  -16.1850    0.7182 C   0  0
   17.0491  -17.3880    1.3967 O   0  0
   17.6295  -15.2546    1.0069 O   0  0
   12.9343  -17.8297   -1.8197 C   0  0
   12.0772  -18.0617    2.0070 C   0  0
    8.9387  -17.7574    1.9396 C   0  0
    7.9052  -21.8570   -0.2091 C   0  0
    7.4887  -20.5768    1.8649 C   0  0
   13.6416  -12.8930    0.9522 C   0  0
   16.0385  -11.6487   -0.1502 C   0  0
    5.4885  -17.5388   -0.6240 O   0  0
    5.4252  -20.3432   -0.1114 O   0  0
    6.4014  -18.1075    1.1487 H   0  0
    6.8396  -19.6963   -1.4543 H   0  0
    7.8437  -16.3878   -0.0340 H   0  0
    8.0588  -17.5147   -1.3954 H   0  0
    9.2862  -19.6853   -1.0770 H   0  0
   10.3566  -20.2198    1.7380 H   0  0
   10.3775  -21.4059    0.4105 H   0  0
   12.5680  -20.2237    0.5297 H   0  0
   11.7282  -19.8063   -0.9835 H   0  0
   10.5055  -17.5853   -1.2103 H   0  0
   12.0168  -14.2682    0.2121 H   0  0
    9.9034  -15.4488   -0.5175 H   0  0
   10.1644  -15.8223    1.2035 H   0  0
   14.6371  -17.9966    1.2014 H   0  0
   14.3874  -19.2971    0.0116 H   0  0
   16.3305  -18.1436   -0.7574 H   0  0
   14.9956  -17.5622   -1.7817 H   0  0
   14.6232  -15.3838    1.2465 H   0  0
   17.1489  -15.8603   -2.0109 H   0  0
   15.4861  -15.3419   -2.3792 H   0  0
   17.7343  -13.8134   -1.0767 H   0  0
   16.4351  -13.2276   -2.1436 H   0  0
   16.3850  -13.5083    0.9248 H   0  0
   14.1357  -13.4550   -1.0836 H   0  0
   16.1562  -17.6511    1.8826 H   0  0
   13.7915  -17.3945   -2.3333 H   0  0
   12.0176  -17.3732   -2.1930 H   0  0
   12.9068  -18.9034   -2.0055 H   0  0
   12.1523  -17.0068    2.2707 H   0  0
   13.0073  -18.5675    2.2663 H   0  0
   11.2521  -18.5151    2.5563 H   0  0
    9.7672  -18.1890    2.5011 H   0  0
    7.9997  -18.1832    2.2935 H   0  0
    8.9252  -16.6773    2.0855 H   0  0
    6.9884  -22.3990    0.0223 H   0  0
    8.7534  -22.3671    0.2475 H   0  0
    8.0424  -21.8209   -1.2899 H   0  0
    6.5561  -21.1276    1.9872 H   0  0
    7.3888  -19.5895    2.3160 H   0  0
    8.2974  -21.1194    2.3545 H   0  0
   13.6914  -11.8233    0.7492 H   0  0
   14.0120  -13.0890    1.9584 H   0  0
   12.6077  -13.2294    0.8742 H   0  0
   15.5460  -11.1636    0.6925 H   0  0
   15.5622  -11.3341   -1.0789 H   0  0
   17.0908  -11.3650   -0.1678 H   0  0
    5.6647  -17.5873   -1.6580 H   0  0
    5.2244  -20.3085    0.9187 H   0  0
 17 18  1  0
  6  7  1  0
  7  8  1  0
 10  8  1  0
  9 10  1  0
  6  3  1  0
  5  4  1  0
 17 22  1  0
 18 19  1  0
 19 20  1  0
 21 20  1  0
 22 21  1  0
  5  6  1  0
 18 23  1  0
  9 12  1  0
 10 14  1  0
 23 24  1  0
 23 25  2  0
 13 11  2  0
 14 26  1  0
 11 12  1  0
 10 27  1  0
 14 13  1  0
  1  2  1  0
  5 28  1  0
  1  4  1  0
  2  3  1  0
  3 29  1  0
  5  9  1  0
  3 30  1  0
 17 13  1  0
 22 31  1  0
 14 15  1  0
 21 32  1  0
 15 16  1  0
  1 33  1  0
 18 16  1  0
  2 34  1  0
  1 35  1  0
  2 36  1  0
  4 37  1  0
  4 38  1  0
  6 39  1  0
  7 40  1  0
  7 41  1  0
  8 42  1  0
  8 43  1  0
  9 44  1  0
 11 45  1  0
 12 46  1  0
 12 47  1  0
 15 48  1  0
 15 49  1  0
 16 50  1  0
 16 51  1  0
 17 52  1  0
 19 53  1  0
 19 54  1  0
 20 55  1  0
 20 56  1  0
 21 57  1  0
 22 58  1  0
 24 59  1  0
 26 60  1  0
 26 61  1  0
 26 62  1  0
 27 63  1  0
 27 64  1  0
 27 65  1  0
 28 66  1  0
 28 67  1  0
 28 68  1  0
 29 69  1  0
 29 70  1  0
 29 71  1  0
 30 72  1  0
 30 73  1  0
 30 74  1  0
 31 75  1  0
 31 76  1  0
 31 77  1  0
 32 78  1  0
 32 79  1  0
 32 80  1  0
 33 81  1  0
 34 82  1  0
M  END
> <Name>
Molecule

> <Clean Energy>
144.418

> <From>
www.bindingDB.org

> <BindingDB Reactant_set_id>
50952821

> <Ligand InChI>
InChI=1S/C30H48O4/c1-17-10-13-30(25(33)34)15-14-28(6)19(23(30)18(17)2)8-9-22-27(5)16-20(31)24(32)26(3,4)21(27)11-12-29(22,28)7/h8,17-18,20-24,31-32H,9-16H2,1-7H3,(H,33,34)/t17-,18+,20-,21+,22-,23+,24+
,27+,28-,29-,30+/m1/s1

> <Ligand InChI Key>
HFGSQOYIOKBQOW-ZSDYHTTISA-N

> <BindingDB MonomerID>
50222205

> <BindingDB Ligand Name>
(1S,2R,4aS,6aS,6bR,8aR,10R,11R,12aR,12bR,14bS)-10,11-dihydroxy-1,2,6a,6b,9,9,12a-heptamethyl-1,2,3,4,4a,5,6,6a,6b,7,8,8a,9,10,11,12,12a,12b,13,14b-icosahydropicene-4a-carboxylic acid::2-alpha-hydroxyu
rsolic acid::2alpha,2beta-dihydroxy-18beta-ursan-12-ene-28-oic acid::2alpha,3beta-Dihydroxyurs-12-en-28-oic Acid::CHEMBL391533::Corosolic acid::US11660306, Example Corosolic acid

> <Target Name>
Tyrosine-protein phosphatase non-receptor type 1

> <Target Source Organism According to Curator or DataSource>
Homo sapiens

> <IC50 (nM)>
7000

> <Curation/DataSource>
ChEMBL

> <Article DOI>
10.1016/j.bmcl.2012.08.029

> <BindingDB Entry DOI>
10.7270/Q21V5G24

> <PMID>
22940448

> <Authors>
Choi, YH; Zhou, W; Oh, J; Choe, S; Kim, DW; Lee, SH; Na, M

> <Institution>
Yeungnam University

> <Link to Ligand in BindingDB>
http://www.bindingdb.org/bind/chemsearch/marvin/MolStructure.jsp?monomerid=50222205

> <Link to Ligand-Target Pair in BindingDB>
http://www.bindingdb.org/jsp/dbsearch/PrimarySearch_ki.jsp?energyterm=kJ/mole&tag=pol&polymerid=2622&target=Tyrosine-protein+phosphatase+non-receptor+type+1&column=ki&startPg=0&Increment=50&submit=Sea
rch
http://www.bindingdb.org/jsp/dbsearch/PrimarySearch_ki.jsp?energyterm=kJ/mole&tag=r21&monomerid=50222205&enzyme=Tyrosine-protein+phosphatase+non-receptor+type+1&column=ki&startPg=0&Increment=50&submit
=Search

> <PubChem CID of Ligand>
6918774

> <PubChem SID of Ligand>
104094637

> <ChEBI ID of Ligand>
67895

> <ChEMBL ID of Ligand>
CHEMBL391533

> <ZINC ID of Ligand>
ZINC08829484

> <Number of Protein Chains in Target (bigger than 1 implies a multichain complex)>
1

> <BindingDB Target Chain Sequence>
MEMEKEFEQIDKSGSWAAIYQDIRHEASDFPCRVAKLPKNKNRNRYRDVSPFDHSRIKLHQEDNDYINASLIKMEEAQRSYILTQGPLPNTCGHFWEMVWEQKSRGVVMLNRVMEKGSLKCAQYWPQKEEKEMIFEDTNLKLTLISEDIKSYYTVRQLELENLTTQETREILHFHYTTWPDFGVPESPASFLNFLFKVRE
SGSLSPEHGPVVVHCSAGIGRSGTFCLADTCLLLMDKRKDPSSVDIKKVLLEMRKFRMGLIQTADQLRFSYLAVIEGAKFIMGDSSVQDQWKELSHEDLEPPPEHIPPPPRPPKRILEPHNGKCREFFPNHQWVKEETQEDKDCPIKEEKGSPLNAAPYGIESMSQDTEVRSRVVGGSLRGAQAASPAKGEPSLPEKDED
HALSYWKPFLVNMCVATVLTAGAYLCYRFLFNSNT

> <PDB ID(s) of Target Chain>
1BZJ,1G7G,1GFY,1JF7,1KAK,1KAV,1LQF,1NL9,1NNY,1NO6,1NZ7,1OEM,1OEO,1OES,1OET,1OEU,1OEV,1ONY,1ONZ,1PH0,1PXH,1PYN,1Q1M,1Q6J,1Q6M,1Q6N,1Q6P,1Q6S,1Q6T,1QXK,1SUG,1T48,1T49,1T4J,1WAX,1XBO,2AZR,2B07,2BGD,2BGE,
2CM2,2CM3,2CM7,2CM8,2CMA,2CMB,2CMC,2CNE,2CNF,2CNG,2CNH,2CNI,2F6T,2F6V,2F6W,2F6Y,2F6Z,2F70,2F71,2FJN,2H4G,2H4K,2HB1,2HNP,2HNQ,2QBP,2QBQ,2QBR,2QBS,2VEU,2VEV,2VEW,2VEX,2VEY,2ZMM,2ZN7,3A5J,3CWE,3D9C,3EAX,
3EB1,3EU0,3I7Z,3I80,3SME,4BJO,4I8N,4QBW,4Y14,5K9V,5K9W,5KA0,5KA1,5T19,6B90,6NTP,6W30,7KEY,7KLX,7LFO,7MN9,7MNA,8DU7,8G65,8G67,8G68,8G69,8G6A,8SKL

> <UniProt (SwissProt) Recommended Name of Target Chain>
Tyrosine-protein phosphatase non-receptor type 1

> <UniProt (SwissProt) Entry Name of Target Chain>
PTN1_HUMAN

> <UniProt (SwissProt) Primary ID of Target Chain>
P18031

> <UniProt (SwissProt) Secondary ID(s) of Target Chain>
Q5TGD8 Q9BQV9 Q9NQQ4

$$$$
Molecule
  SciTegic10242319433D

 60 61  0  0  0  0            999 V2000
    3.8019   -7.2046    0.0001 C   0  0
    5.0598   -7.9444    0.0001 C   0  0
    6.2251   -7.2963    0.0001 C   0  0
    3.8135   -5.9686    0.0000 O   0  0
    2.5239   -7.9217    0.0001 C   0  0
    1.3887   -7.2333    0.0001 C   0  0
    0.0644   -7.8921    0.0001 C   0  0
    0.0443   -9.2455    0.0002 C   0  0
    1.3183  -10.0012    0.0003 C   0  0
    2.4905   -9.3716    0.0002 C   0  0
   -2.6834   -7.6491    0.0006 C   0  0
   -1.2738   -7.0003    0.0000 C   0  0  1  0  0  0
   -1.3081   -5.4459   -0.0002 C   0  0
   -0.2227   -4.6738   -0.0007 C   0  0
   -2.6486   -4.7650    0.0000 C   0  0
   -1.1614   -9.9625    0.0002 O   0  0
   -0.9861  -11.3831    0.0002 C   0  0
   -2.3584  -12.0071   -0.0001 C   0  0
   -2.5263  -13.3292   -0.0002 C   0  0
   -3.9163  -13.8992   -0.0006 C   0  0
   -1.3400  -14.2519    0.0000 C   0  0
    7.5579   -7.9805   -0.0001 C   0  0
    7.7025   -9.3190    0.0001 C   0  0
    9.0582   -9.8989   -0.0001 C   0  0
   10.1329   -9.1159    0.0001 C   0  0
    9.9777   -7.6694    0.0001 C   0  0
    8.7603   -7.1300    0.0003 C   0  0
    6.5917  -10.1840   -0.0002 O   0  0
    6.9963  -11.5595   -0.0003 C   0  0
   11.4041   -9.6800    0.0001 O   0  0
   11.5167   -6.5531    0.0003 Br  0  0
    5.0467   -9.0343    0.0001 H   0  0
    6.2069   -6.2064    0.0003 H   0  0
    1.4343   -6.1442    0.0000 H   0  0
    1.2951  -11.0910    0.0003 H   0  0
    3.4195   -9.9417    0.0003 H   0  0
   -2.5844   -8.7345    0.0007 H   0  0
   -3.2290   -7.3347   -0.8892 H   0  0
   -3.2285   -7.3344    0.8906 H   0  0
   -1.2740   -7.0006   -1.0900 H   0  0
    0.7686   -5.1271   -0.0009 H   0  0
   -0.3258   -3.5887   -0.0008 H   0  0
   -2.5077   -3.6842   -0.0002 H   0  0
   -3.2054   -5.0581    0.8900 H   0  0
   -3.2058   -5.0584   -0.8897 H   0  0
   -0.4375  -11.6905    0.8905 H   0  0
   -0.4370  -11.6905   -0.8898 H   0  0
   -3.2358  -11.3604   -0.0003 H   0  0
   -3.8631  -14.9878   -0.0007 H   0  0
   -4.4477  -13.5619   -0.8906 H   0  0
   -4.4481  -13.5620    0.8892 H   0  0
   -1.6836  -15.2863   -0.0002 H   0  0
   -0.7376  -14.0699    0.8900 H   0  0
   -0.7372  -14.0698   -0.8898 H   0  0
    9.1808  -10.9820   -0.0005 H   0  0
    8.6522   -6.0453    0.0006 H   0  0
    6.1134  -12.1985   -0.0006 H   0  0
    7.5917  -11.7636    0.8897 H   0  0
    7.5920  -11.7634   -0.8901 H   0  0
   11.5237  -10.2747    0.8572 H   0  0
  1  2  1  0
  2  3  2  0
  1  4  2  0
  5  6  2  0
  6  7  1  0
  7  8  2  0
  8  9  1  0
  9 10  2  0
  5 10  1  0
 11 12  1  0
 12 13  1  0
 13 14  2  0
 13 15  1  0
  7 12  1  0
 17 18  1  0
 18 19  2  0
 19 20  1  0
 16 17  1  0
 19 21  1  0
  8 16  1  0
  1  5  1  0
 22 23  2  0
 23 24  1  0
 24 25  2  0
 25 26  1  0
 26 27  2  0
 22 27  1  0
 28 29  1  0
 23 28  1  0
 25 30  1  0
 26 31  1  0
  3 22  1  0
  2 32  1  0
  3 33  1  0
  6 34  1  0
  9 35  1  0
 10 36  1  0
 11 37  1  0
 11 38  1  0
 11 39  1  0
 12 40  1  0
 14 41  1  0
 14 42  1  0
 15 43  1  0
 15 44  1  0
 15 45  1  0
 17 46  1  0
 17 47  1  0
 18 48  1  0
 20 49  1  0
 20 50  1  0
 20 51  1  0
 21 52  1  0
 21 53  1  0
 21 54  1  0
 24 55  1  0
 27 56  1  0
 29 57  1  0
 29 58  1  0
 29 59  1  0
 30 60  1  0
M  END
> <Name>
Molecule

> <Clean Energy>
11.8421

> <From>
www.bindingDB.org

> <BindingDB Reactant_set_id>
50641727

> <Ligand InChI>
InChI=1S/C26H29BrO4/c1-16(2)11-12-31-25-10-8-19(13-21(25)18(5)17(3)4)23(28)9-7-20-14-22(27)24(29)15-26(20)30-6/h7-11,13-15,18,29H,3,12H2,1-2,4-6H3/b9-7+

> <Ligand InChI Key>
HGRGDRCGJPPYMR-VQHVLOKHSA-N

> <BindingDB MonomerID>
50344624

> <BindingDB Ligand Name>
(E)-3-(5-Bromo-4-hydroxy-2-methoxyphenyl)-1-(4-(3-methylbut-2-enyloxy)-3-(3-methylbut-3-en-2-yl)phenyl)prop-2-en-1-one::CHEMBL1779053

> <Target Name>
Tyrosine-protein phosphatase non-receptor type 1

> <Target Source Organism According to Curator or DataSource>
Homo sapiens

> <IC50 (nM)>
7000

> <Curation/DataSource>
ChEMBL

> <Article DOI>
10.1016/j.bmcl.2011.04.057

> <BindingDB Entry DOI>
10.7270/Q23J3D96

> <PMID>
21555221

> <Authors>
Liu, Z; Lee, W; Kim, SN; Yoon, G; Cheon, SH

> <Institution>
Chonnam National University

> <Link to Ligand in BindingDB>
http://www.bindingdb.org/bind/chemsearch/marvin/MolStructure.jsp?monomerid=50344624

> <Link to Ligand-Target Pair in BindingDB>
http://www.bindingdb.org/jsp/dbsearch/PrimarySearch_ki.jsp?energyterm=kJ/mole&tag=pol&polymerid=2622&target=Tyrosine-protein+phosphatase+non-receptor+type+1&column=ki&startPg=0&Increment=50&submit=Sea
rch
http://www.bindingdb.org/jsp/dbsearch/PrimarySearch_ki.jsp?energyterm=kJ/mole&tag=r21&monomerid=50344624&enzyme=Tyrosine-protein+phosphatase+non-receptor+type+1&column=ki&startPg=0&Increment=50&submit
=Search

> <PubChem CID of Ligand>
54580847

> <PubChem SID of Ligand>
131347560

> <ChEMBL ID of Ligand>
CHEMBL1779053

> <ZINC ID of Ligand>
ZINC71333592

> <Number of Protein Chains in Target (bigger than 1 implies a multichain complex)>
1

> <BindingDB Target Chain Sequence>
MEMEKEFEQIDKSGSWAAIYQDIRHEASDFPCRVAKLPKNKNRNRYRDVSPFDHSRIKLHQEDNDYINASLIKMEEAQRSYILTQGPLPNTCGHFWEMVWEQKSRGVVMLNRVMEKGSLKCAQYWPQKEEKEMIFEDTNLKLTLISEDIKSYYTVRQLELENLTTQETREILHFHYTTWPDFGVPESPASFLNFLFKVRE
SGSLSPEHGPVVVHCSAGIGRSGTFCLADTCLLLMDKRKDPSSVDIKKVLLEMRKFRMGLIQTADQLRFSYLAVIEGAKFIMGDSSVQDQWKELSHEDLEPPPEHIPPPPRPPKRILEPHNGKCREFFPNHQWVKEETQEDKDCPIKEEKGSPLNAAPYGIESMSQDTEVRSRVVGGSLRGAQAASPAKGEPSLPEKDED
HALSYWKPFLVNMCVATVLTAGAYLCYRFLFNSNT

> <PDB ID(s) of Target Chain>
1BZJ,1G7G,1GFY,1JF7,1KAK,1KAV,1LQF,1NL9,1NNY,1NO6,1NZ7,1OEM,1OEO,1OES,1OET,1OEU,1OEV,1ONY,1ONZ,1PH0,1PXH,1PYN,1Q1M,1Q6J,1Q6M,1Q6N,1Q6P,1Q6S,1Q6T,1QXK,1SUG,1T48,1T49,1T4J,1WAX,1XBO,2AZR,2B07,2BGD,2BGE,
2CM2,2CM3,2CM7,2CM8,2CMA,2CMB,2CMC,2CNE,2CNF,2CNG,2CNH,2CNI,2F6T,2F6V,2F6W,2F6Y,2F6Z,2F70,2F71,2FJN,2H4G,2H4K,2HB1,2HNP,2HNQ,2QBP,2QBQ,2QBR,2QBS,2VEU,2VEV,2VEW,2VEX,2VEY,2ZMM,2ZN7,3A5J,3CWE,3D9C,3EAX,
3EB1,3EU0,3I7Z,3I80,3SME,4BJO,4I8N,4QBW,4Y14,5K9V,5K9W,5KA0,5KA1,5T19,6B90,6NTP,6W30,7KEY,7KLX,7LFO,7MN9,7MNA,8DU7,8G65,8G67,8G68,8G69,8G6A,8SKL

> <UniProt (SwissProt) Recommended Name of Target Chain>
Tyrosine-protein phosphatase non-receptor type 1

> <UniProt (SwissProt) Entry Name of Target Chain>
PTN1_HUMAN

> <UniProt (SwissProt) Primary ID of Target Chain>
P18031

> <UniProt (SwissProt) Secondary ID(s) of Target Chain>
Q5TGD8 Q9BQV9 Q9NQQ4

$$$$
Molecule
  SciTegic10242319433D

104110  0  0  0  0            999 V2000
   -6.3458  -20.8601   -0.1868 C   0  0  2  0  0  0
   -6.3506  -22.3900   -0.5193 C   0  0  1  0  0  0
   -5.2131  -23.1306    0.3273 C   0  0  2  0  0  0
   -3.8410  -22.4811   -0.0697 C   0  0  1  0  0  0
   -3.8490  -21.0485    0.2534 O   0  0
   -4.8525  -20.3291   -0.5313 C   0  0  2  0  0  0
   -2.7111  -23.1646    0.6010 O   0  0
   -5.1311  -24.5701    0.0279 O   0  0
   -6.3043  -25.2858    0.4641 C   0  0
   -6.2111  -26.7573    0.2060 C   0  0
   -7.4086  -27.5913    0.3634 C   0  0
   -7.3443  -28.9022    0.1397 C   0  0
   -6.0746  -29.5125   -0.2598 C   0  0
   -4.9864  -28.7559   -0.4019 C   0  0
   -5.0571  -27.3102   -0.1598 C   0  0
   -7.6699  -22.9597   -0.2257 O   0  0
   -8.7638  -22.4052   -0.9650 C   0  0
  -10.0230  -23.1232   -0.5466 C   0  0
  -11.2185  -22.5887   -0.7936 C   0  0
  -12.4378  -23.2937   -0.3763 C   0  0
  -12.3501  -24.4703    0.2431 C   0  0
  -11.0360  -25.0588    0.5116 C   0  0
   -9.9303  -24.4159    0.1396 C   0  0
   -6.8061  -20.7136    1.2452 O   0  0
   -7.1137  -19.3391    1.7304 C   0  0
   -8.3264  -18.6516    1.0626 C   0  0
   -8.3496  -17.3201    0.9639 C   0  0
   -9.4913  -16.6372    0.3334 C   0  0
  -10.5159  -17.3459   -0.1364 C   0  0
  -10.5016  -18.8047   -0.0217 C   0  0
   -9.4645  -19.4228    0.5457 C   0  0
   -4.7255  -18.7939   -0.2879 C   0  0
   -3.4488  -18.2059   -0.5190 O   0  0
   -3.6575  -16.8075   -0.2380 C   0  0
   -2.3923  -16.0039   -0.1669 C   0  0
   -1.2016  -16.5847   -0.2953 C   0  0
    0.0180  -15.7703   -0.2066 C   0  0
   -0.0663  -14.4566    0.0045 C   0  0
   -1.3762  -13.8205    0.1474 C   0  0
   -2.4821  -14.5567    0.0659 C   0  0
   -1.4688  -22.4775    0.2389 C   0  0
   -0.1421  -23.3130    0.2908 C   0  0
    0.0208  -24.6066    0.1655 C   0  0
    1.4392  -24.7811    0.2397 N   0  0
    1.9876  -23.5692    0.4055 N   0  0
    1.1199  -22.7035    0.4334 N   0  0
    2.2232  -26.0175   -0.1381 C   0  0  2  0  0  0
    1.4617  -27.3120    0.1109 C   0  0
    3.6494  -26.2272    0.5204 C   0  0
    0.2337  -27.3434    0.2171 O   0  0
    2.1808  -28.5062    0.1820 O   0  0
    4.7748  -25.2253    0.2374 C   0  0
    5.9923  -25.5030    0.7127 C   0  0
    7.1190  -24.5996    0.4625 C   0  0
    6.9328  -23.4894   -0.2464 C   0  0
    5.6021  -23.1808   -0.7780 C   0  0
    4.5798  -24.0076   -0.5532 C   0  0
   -7.0584  -20.3555   -0.8392 H   0  0
   -6.1398  -22.5199   -1.5808 H   0  0
   -5.3942  -22.9860    1.3924 H   0  0
   -3.7126  -22.5871   -1.1469 H   0  0
   -4.6595  -20.5219   -1.5866 H   0  0
   -6.4318  -25.1269    1.5349 H   0  0
   -7.1707  -24.8926   -0.0678 H   0  0
   -8.3524  -27.1365    0.6642 H   0  0
   -8.2351  -29.5199    0.2536 H   0  0
   -6.0193  -30.5859   -0.4410 H   0  0
   -4.0419  -29.2121   -0.6985 H   0  0
   -4.1677  -26.6915   -0.2791 H   0  0
   -8.8553  -21.3412   -0.7471 H   0  0
   -8.5964  -22.5448   -2.0330 H   0  0
  -11.2916  -21.6289   -1.3050 H   0  0
  -13.4154  -22.8539   -0.5735 H   0  0
  -13.2554  -24.9942    0.5497 H   0  0
  -10.9629  -26.0225    1.0156 H   0  0
   -8.9530  -24.8522    0.3461 H   0  0
   -7.3088  -19.3973    2.8012 H   0  0
   -6.2362  -18.7170    1.5537 H   0  0
   -7.5169  -16.7343    1.3531 H   0  0
   -9.4979  -15.5503    0.2512 H   0  0
  -11.3615  -16.8418   -0.6043 H   0  0
  -11.3407  -19.3879   -0.4010 H   0  0
   -9.4617  -20.5098    0.6265 H   0  0
   -5.4400  -18.2968   -0.9440 H   0  0
   -4.9921  -18.6028    0.7516 H   0  0
   -4.2849  -16.3897   -1.0254 H   0  0
   -4.1711  -16.7234    0.7197 H   0  0
   -1.1316  -17.6591   -0.4653 H   0  0
    0.9949  -16.2417   -0.3138 H   0  0
    0.8410  -13.8561    0.0707 H   0  0
   -1.4462  -12.7466    0.3202 H   0  0
   -3.4583  -14.0835    0.1723 H   0  0
   -1.5838  -22.1092   -0.7805 H   0  0
   -1.3512  -21.6341    0.9193 H   0  0
   -0.7449  -25.3713    0.0351 H   0  0
    2.3873  -25.9600   -1.2141 H   0  0
    3.5000  -26.2369    1.6001 H   0  0
    4.0070  -27.2037    0.1938 H   0  0
    2.6877  -28.6646   -0.7238 H   0  0
    6.1494  -26.4120    1.2934 H   0  0
    8.1073  -24.8368    0.8565 H   0  0
    7.7665  -22.8119   -0.4313 H   0  0
    5.4473  -22.2719   -1.3593 H   0  0
    3.5952  -23.7762   -0.9595 H   0  0
  4  7  1  0
 26 27  2  0
 13 14  2  0
 27 28  1  0
  1  2  1  0
 28 29  2  0
 14 15  1  0
 29 30  1  0
 15 10  2  0
 30 31  2  0
 31 26  1  0
  3  8  1  0
  6 32  1  0
  2 16  1  0
 32 33  1  0
  1  6  1  0
 33 34  1  0
 16 17  1  0
  8  9  1  0
 34 35  1  0
 17 18  1  0
 35 36  2  0
  2  3  1  0
 36 37  1  0
 37 38  2  0
  9 10  1  0
 38 39  1  0
 18 19  2  0
 39 40  2  0
 40 35  1  0
  3  4  1  0
  7 41  1  0
 19 20  1  0
 41 42  1  0
 42 43  2  0
 20 21  2  0
  4  5  1  0
 21 22  1  0
 43 44  1  0
 44 45  1  0
 45 46  2  0
 46 42  1  0
 10 11  1  0
 47 44  1  0
 22 23  2  0
 47 48  1  0
 23 18  1  0
 47 49  1  0
  6  5  1  0
 48 50  2  0
  1 24  1  0
 48 51  1  0
 11 12  2  0
 49 52  1  0
 24 25  1  0
 52 53  2  0
 53 54  1  0
 25 26  1  0
 54 55  2  0
 12 13  1  0
 55 56  1  0
 56 57  2  0
 57 52  1  0
  1 58  1  0
  2 59  1  0
  3 60  1  0
  4 61  1  0
  6 62  1  0
  9 63  1  0
  9 64  1  0
 11 65  1  0
 12 66  1  0
 13 67  1  0
 14 68  1  0
 15 69  1  0
 17 70  1  0
 17 71  1  0
 19 72  1  0
 20 73  1  0
 21 74  1  0
 22 75  1  0
 23 76  1  0
 25 77  1  0
 25 78  1  0
 27 79  1  0
 28 80  1  0
 29 81  1  0
 30 82  1  0
 31 83  1  0
 32 84  1  0
 32 85  1  0
 34 86  1  0
 34 87  1  0
 36 88  1  0
 37 89  1  0
 38 90  1  0
 39 91  1  0
 40 92  1  0
 41 93  1  0
 41 94  1  0
 43 95  1  0
 47 96  1  0
 49 97  1  0
 49 98  1  0
 51 99  1  0
 53100  1  0
 54101  1  0
 55102  1  0
 56103  1  0
 57104  1  0
M  END
> <Name>
Molecule

> <Clean Energy>
58.9409

> <From>
www.bindingDB.org

> <BindingDB Reactant_set_id>
50621835

> <Ligand InChI>
InChI=1S/C46H47N3O8/c50-45(51)40(26-34-16-6-1-7-17-34)49-27-39(47-48-49)32-56-46-44(55-31-38-24-14-5-15-25-38)43(54-30-37-22-12-4-13-23-37)42(53-29-36-20-10-3-11-21-36)41(57-46)33-52-28-35-18-8-2-9-19
-35/h1-25,27,40-44,46H,26,28-33H2,(H,50,51)/t40-,41+,42-,43-,44+,46+/m0/s1

> <Ligand InChI Key>
RWUXVUTVRJKNCY-LWQOTUEFSA-N

> <BindingDB MonomerID>
50336341

> <BindingDB Ligand Name>
CHEMBL1667959::Triazole tetra-benzyloxy-beta-D-O-galactosyl Phenylalanine

> <Target Name>
Tyrosine-protein phosphatase non-receptor type 1

> <Target Source Organism According to Curator or DataSource>
Homo sapiens

> <IC50 (nM)>
7000

> <Curation/DataSource>
ChEMBL

> <Article DOI>
10.1016/j.bmcl.2010.12.126

> <BindingDB Entry DOI>
10.7270/Q2D79BP8

> <PMID>
21251827

> <Authors>
Yang, JW; He, XP; Li, C; Gao, LX; Sheng, L; Xie, J; Shi, XX; Tang, Y; Li, J; Chen, GR

> <Institution>
East China University of Science and Technology

> <Link to Ligand in BindingDB>
http://www.bindingdb.org/bind/chemsearch/marvin/MolStructure.jsp?monomerid=50336341

> <Link to Ligand-Target Pair in BindingDB>
http://www.bindingdb.org/jsp/dbsearch/PrimarySearch_ki.jsp?energyterm=kJ/mole&tag=pol&polymerid=2622&target=Tyrosine-protein+phosphatase+non-receptor+type+1&column=ki&startPg=0&Increment=50&submit=Sea
rch
http://www.bindingdb.org/jsp/dbsearch/PrimarySearch_ki.jsp?energyterm=kJ/mole&tag=r21&monomerid=50336341&enzyme=Tyrosine-protein+phosphatase+non-receptor+type+1&column=ki&startPg=0&Increment=50&submit
=Search

> <PubChem CID of Ligand>
53320580

> <PubChem SID of Ligand>
125086443

> <ChEMBL ID of Ligand>
CHEMBL1667959

> <ZINC ID of Ligand>
ZINC95547777

> <Number of Protein Chains in Target (bigger than 1 implies a multichain complex)>
1

> <BindingDB Target Chain Sequence>
MEMEKEFEQIDKSGSWAAIYQDIRHEASDFPCRVAKLPKNKNRNRYRDVSPFDHSRIKLHQEDNDYINASLIKMEEAQRSYILTQGPLPNTCGHFWEMVWEQKSRGVVMLNRVMEKGSLKCAQYWPQKEEKEMIFEDTNLKLTLISEDIKSYYTVRQLELENLTTQETREILHFHYTTWPDFGVPESPASFLNFLFKVRE
SGSLSPEHGPVVVHCSAGIGRSGTFCLADTCLLLMDKRKDPSSVDIKKVLLEMRKFRMGLIQTADQLRFSYLAVIEGAKFIMGDSSVQDQWKELSHEDLEPPPEHIPPPPRPPKRILEPHNGKCREFFPNHQWVKEETQEDKDCPIKEEKGSPLNAAPYGIESMSQDTEVRSRVVGGSLRGAQAASPAKGEPSLPEKDED
HALSYWKPFLVNMCVATVLTAGAYLCYRFLFNSNT

> <PDB ID(s) of Target Chain>
1BZJ,1G7G,1GFY,1JF7,1KAK,1KAV,1LQF,1NL9,1NNY,1NO6,1NZ7,1OEM,1OEO,1OES,1OET,1OEU,1OEV,1ONY,1ONZ,1PH0,1PXH,1PYN,1Q1M,1Q6J,1Q6M,1Q6N,1Q6P,1Q6S,1Q6T,1QXK,1SUG,1T48,1T49,1T4J,1WAX,1XBO,2AZR,2B07,2BGD,2BGE,
2CM2,2CM3,2CM7,2CM8,2CMA,2CMB,2CMC,2CNE,2CNF,2CNG,2CNH,2CNI,2F6T,2F6V,2F6W,2F6Y,2F6Z,2F70,2F71,2FJN,2H4G,2H4K,2HB1,2HNP,2HNQ,2QBP,2QBQ,2QBR,2QBS,2VEU,2VEV,2VEW,2VEX,2VEY,2ZMM,2ZN7,3A5J,3CWE,3D9C,3EAX,
3EB1,3EU0,3I7Z,3I80,3SME,4BJO,4I8N,4QBW,4Y14,5K9V,5K9W,5KA0,5KA1,5T19,6B90,6NTP,6W30,7KEY,7KLX,7LFO,7MN9,7MNA,8DU7,8G65,8G67,8G68,8G69,8G6A,8SKL

> <UniProt (SwissProt) Recommended Name of Target Chain>
Tyrosine-protein phosphatase non-receptor type 1

> <UniProt (SwissProt) Entry Name of Target Chain>
PTN1_HUMAN

> <UniProt (SwissProt) Primary ID of Target Chain>
P18031

> <UniProt (SwissProt) Secondary ID(s) of Target Chain>
Q5TGD8 Q9BQV9 Q9NQQ4

$$$$
Molecule
  SciTegic10242319433D

 65 66  0  0  0  0            999 V2000
   -2.3943    0.5020    1.3966 C   0  0
   -1.8751   -1.0204    1.7827 C   0  0
   -1.3226   -1.5042    0.5026 C   0  0  1  0  0  0
   -1.5948    1.2792    0.1669 C   0  0
   -0.1421    0.9646    0.3895 C   0  0  1  0  0  0
   -0.0086   -0.6365    0.0765 C   0  0  1  0  0  0
    1.3018   -1.0318    0.7892 C   0  0
    2.5453   -0.3359    0.1489 C   0  0
    2.3419    1.1547   -0.0955 C   0  0
    0.9647    1.7193   -0.4542 C   0  0  2  0  0  0
    0.1391    1.3914    1.9090 C   0  0
   -0.9534   -3.0036    0.4978 C   0  0
   -2.4105   -1.3381   -0.4963 N   0  0
    3.4145    1.9328   -0.2097 C   0  0
    1.0421    3.3059   -0.2564 C   0  0
   -0.2232    4.1242   -0.6479 C   0  0
   -0.0525    5.6061   -0.2519 C   0  0  1  0  0  0
   -1.3580    6.3619   -0.5810 C   0  0
   -1.2367    7.8100   -0.1963 C   0  0
   -2.2677    8.5556   -0.2125 N   0  0
    0.2178    5.7058    1.2648 C   0  0
    0.0751   -0.8778   -0.9927 H   0  0
   -2.1678    9.8384    0.1124 O   0  0
   -3.4235   10.4491    0.0517 C   0  0
   -3.5350   11.6534    0.3082 O   0  0
   -4.6411    9.6480   -0.3185 C   0  0
   -3.7036   -1.9720   -0.4190 C   0  0
   -4.1087   -2.6964    0.7135 N   0  0
   -4.5162   -1.7869   -1.3315 O   0  0
   -3.4442    0.4296    1.1125 H   0  0
   -2.3011    1.1182    2.2909 H   0  0
   -1.1079   -0.9903    2.5564 H   0  0
   -2.7032   -1.6462    2.1156 H   0  0
   -1.9241    0.9036   -0.8019 H   0  0
   -1.7662    2.3544    0.2177 H   0  0
    1.2351   -0.7395    1.8371 H   0  0
    1.4283   -2.1123    0.7202 H   0  0
    3.3961   -0.4638    0.8181 H   0  0
    2.7577   -0.8171   -0.8058 H   0  0
    0.7811    1.5184   -1.5097 H   0  0
    1.1824    1.1940    2.1553 H   0  0
   -0.5056    0.8163    2.5737 H   0  0
   -0.0680    2.4544    2.0327 H   0  0
   -0.5551   -3.2771   -0.4792 H   0  0
   -1.8430   -3.5980    0.7063 H   0  0
   -0.2011   -3.1956    1.2629 H   0  0
   -2.2202   -0.7011   -1.3348 H   0  0
    4.4121    1.5011   -0.1283 H   0  0
    3.2960    3.0021   -0.3847 H   0  0
    1.2455    3.4973    0.7972 H   0  0
    1.8721    3.6734   -0.8598 H   0  0
   -0.3752    4.0560   -1.7251 H   0  0
   -1.0904    3.7126   -0.1314 H   0  0
    0.7782    6.0438   -0.8055 H   0  0
   -1.5545    6.2899   -1.6507 H   0  0
   -2.1825    5.9115   -0.0285 H   0  0
   -0.2696    8.2197    0.0952 H   0  0
    0.3384    6.7523    1.5448 H   0  0
    1.1278    5.1577    1.5090 H   0  0
   -0.6217    5.2780    1.8129 H   0  0
   -5.5182   10.2950   -0.3117 H   0  0
   -4.7793    8.8420    0.4023 H   0  0
   -4.5097    9.2255   -1.3146 H   0  0
   -3.4507   -2.7904    1.5521 H   0  0
   -5.0754   -3.1545    0.7380 H   0  0
  1  2  1  0
  1  4  1  0
  2  3  1  0
  3  6  1  0
  5  4  1  0
  5  6  1  0
  5 10  1  0
  6  7  1  0
  7  8  1  0
  8  9  1  0
  9 10  1  0
  5 11  1  0
  3 12  1  0
  3 13  1  0
  9 14  2  0
 10 15  1  0
 15 16  1  0
 16 17  1  0
 17 18  1  0
 18 19  1  0
 19 20  2  0
 17 21  1  0
  6 22  1  0
 20 23  1  0
 23 24  1  0
 24 25  2  0
 24 26  1  0
 13 27  1  0
 27 28  1  0
 27 29  2  0
  1 30  1  0
  1 31  1  0
  2 32  1  0
  2 33  1  0
  4 34  1  0
  4 35  1  0
  7 36  1  0
  7 37  1  0
  8 38  1  0
  8 39  1  0
 10 40  1  0
 11 41  1  0
 11 42  1  0
 11 43  1  0
 12 44  1  0
 12 45  1  0
 12 46  1  0
 13 47  1  0
 14 48  1  0
 14 49  1  0
 15 50  1  0
 15 51  1  0
 16 52  1  0
 16 53  1  0
 17 54  1  0
 18 55  1  0
 18 56  1  0
 19 57  1  0
 21 58  1  0
 21 59  1  0
 21 60  1  0
 26 61  1  0
 26 62  1  0
 26 63  1  0
 28 64  1  0
 28 65  1  0
M  END
> <Name>
Molecule

> <Clean Energy>
74.5805

> <From>
www.bindingDB.org

> <BindingDB Reactant_set_id>
50481411

> <Ligand InChI>
InChI=1S/C22H37N3O3/c1-15(11-14-24-28-17(3)26)7-9-18-16(2)8-10-19-21(18,4)12-6-13-22(19,5)25-20(23)27/h14-15,18-19H,2,6-13H2,1,3-5H3,(H3,23,25,27)/b24-14+/t15-,18-,19+,21+,22-/m0/s1

> <Ligand InChI Key>
XQYCITFIGSANGV-VZCFTISZSA-N

> <BindingDB MonomerID>
50155761

> <BindingDB Ligand Name>
CHEMBL3782051

> <Target Name>
Tyrosine-protein phosphatase non-receptor type 1

> <Target Source Organism According to Curator or DataSource>
Homo sapiens

> <IC50 (nM)>
7000

> <Curation/DataSource>
ChEMBL

> <Article DOI>
10.1016/j.bmcl.2016.03.003

> <BindingDB Entry DOI>
10.7270/Q2514147

> <PMID>
26965864

> <Authors>
Khan, MF; Azad, CS; Kumar, A; Saini, M; Narula, AK; Jain, S

> <Institution>
University of Lucknow

> <Link to Ligand in BindingDB>
http://www.bindingdb.org/bind/chemsearch/marvin/MolStructure.jsp?monomerid=50155761

> <Link to Ligand-Target Pair in BindingDB>
http://www.bindingdb.org/jsp/dbsearch/PrimarySearch_ki.jsp?energyterm=kJ/mole&tag=pol&polymerid=2622&target=Tyrosine-protein+phosphatase+non-receptor+type+1&column=ki&startPg=0&Increment=50&submit=Sea
rch
http://www.bindingdb.org/jsp/dbsearch/PrimarySearch_ki.jsp?energyterm=kJ/mole&tag=r21&monomerid=50155761&enzyme=Tyrosine-protein+phosphatase+non-receptor+type+1&column=ki&startPg=0&Increment=50&submit
=Search

> <PubChem CID of Ligand>
127031122

> <PubChem SID of Ligand>
340133657

> <ChEMBL ID of Ligand>
CHEMBL3782051

> <Number of Protein Chains in Target (bigger than 1 implies a multichain complex)>
1

> <BindingDB Target Chain Sequence>
MEMEKEFEQIDKSGSWAAIYQDIRHEASDFPCRVAKLPKNKNRNRYRDVSPFDHSRIKLHQEDNDYINASLIKMEEAQRSYILTQGPLPNTCGHFWEMVWEQKSRGVVMLNRVMEKGSLKCAQYWPQKEEKEMIFEDTNLKLTLISEDIKSYYTVRQLELENLTTQETREILHFHYTTWPDFGVPESPASFLNFLFKVRE
SGSLSPEHGPVVVHCSAGIGRSGTFCLADTCLLLMDKRKDPSSVDIKKVLLEMRKFRMGLIQTADQLRFSYLAVIEGAKFIMGDSSVQDQWKELSHEDLEPPPEHIPPPPRPPKRILEPHNGKCREFFPNHQWVKEETQEDKDCPIKEEKGSPLNAAPYGIESMSQDTEVRSRVVGGSLRGAQAASPAKGEPSLPEKDED
HALSYWKPFLVNMCVATVLTAGAYLCYRFLFNSNT

> <PDB ID(s) of Target Chain>
1BZJ,1G7G,1GFY,1JF7,1KAK,1KAV,1LQF,1NL9,1NNY,1NO6,1NZ7,1OEM,1OEO,1OES,1OET,1OEU,1OEV,1ONY,1ONZ,1PH0,1PXH,1PYN,1Q1M,1Q6J,1Q6M,1Q6N,1Q6P,1Q6S,1Q6T,1QXK,1SUG,1T48,1T49,1T4J,1WAX,1XBO,2AZR,2B07,2BGD,2BGE,
2CM2,2CM3,2CM7,2CM8,2CMA,2CMB,2CMC,2CNE,2CNF,2CNG,2CNH,2CNI,2F6T,2F6V,2F6W,2F6Y,2F6Z,2F70,2F71,2FJN,2H4G,2H4K,2HB1,2HNP,2HNQ,2QBP,2QBQ,2QBR,2QBS,2VEU,2VEV,2VEW,2VEX,2VEY,2ZMM,2ZN7,3A5J,3CWE,3D9C,3EAX,
3EB1,3EU0,3I7Z,3I80,3SME,4BJO,4I8N,4QBW,4Y14,5K9V,5K9W,5KA0,5KA1,5T19,6B90,6NTP,6W30,7KEY,7KLX,7LFO,7MN9,7MNA,8DU7,8G65,8G67,8G68,8G69,8G6A,8SKL

> <UniProt (SwissProt) Recommended Name of Target Chain>
Tyrosine-protein phosphatase non-receptor type 1

> <UniProt (SwissProt) Entry Name of Target Chain>
PTN1_HUMAN

> <UniProt (SwissProt) Primary ID of Target Chain>
P18031

> <UniProt (SwissProt) Secondary ID(s) of Target Chain>
Q5TGD8 Q9BQV9 Q9NQQ4

$$$$
Molecule
  SciTegic10242319433D

 72 79  0  0  0  0            999 V2000
    5.8095   -4.5315   -0.3707 C   0  0  2  0  0  0
    3.5533   -3.4565   -0.3695 N   0  0
    4.3158   -4.5705   -0.8078 C   0  0
    6.9883   -4.3010   -1.1894 O   0  0
    6.3792   -5.8503    0.4872 C   0  0  2  0  0  0
    4.4223   -2.5010    0.2142 C   0  0
    5.7264   -2.9982    0.2885 C   0  0
    6.7009   -2.1435    0.8071 C   0  0
    6.4128   -0.8545    1.2395 C   0  0
    5.1108   -0.3906    1.1684 C   0  0
    4.1244   -1.2283    0.6594 C   0  0
    2.0296   -3.4912   -0.4691 C   0  0
    1.0524   -2.2744   -0.2961 C   0  0
    1.4139   -0.9456   -0.4932 C   0  0
    0.4971    0.0859   -0.3260 C   0  0
   -0.8141   -0.2032    0.0271 C   0  0
   -1.1969   -1.5266    0.2063 C   0  0
   -0.2690   -2.5512    0.0449 C   0  0
    8.1165   -4.5165   -0.1270 C   0  0  2  0  0  0
   10.3534   -6.1126    0.3061 O   0  0
    9.4747   -4.0172   -0.4399 C   0  0
   10.5808   -4.8234   -0.1927 C   0  0
   11.8683   -4.3123   -0.4410 C   0  0
   11.9955   -3.0061   -0.9037 C   0  0
   10.8858   -2.2059   -1.1357 C   0  0
    9.6197   -2.7166   -0.9056 C   0  0
    9.1026   -6.5248    0.8737 C   0  0  1  0  0  0
    7.9955   -5.8563    0.0492 C   0  0  1  0  0  0
    8.2549   -6.5037   -1.2194 N   0  0
    8.8597   -7.6974   -0.9735 C   0  0
    9.0237   -7.9788    0.5405 C   0  0
    5.5229   -7.2227    0.3491 C   0  0
    4.2548   -7.2956    0.9271 C   0  0
    3.4748   -8.4466    0.8231 C   0  0
    3.9553   -9.5629    0.1489 C   0  0
    5.2162   -9.5152   -0.4234 C   0  0
    5.9716   -8.3542   -0.3241 C   0  0
    9.1405   -8.5108   -1.8607 O   0  0
    3.7825   -5.5610   -1.3182 O   0  0
    3.1238  -10.8115    0.0325 C   0  0
   13.1137   -5.0178   -0.2503 O   0  0
   13.0591   -6.3741    0.2004 C   0  0
    6.3461   -5.5708    1.5402 H   0  0
    7.7282   -2.5012    0.8755 H   0  0
    7.2043   -0.2153    1.6306 H   0  0
    4.8625    0.6156    1.5061 H   0  0
    3.0951   -0.8730    0.6108 H   0  0
    1.8201   -3.8828   -1.4645 H   0  0
    1.7137   -4.2163    0.2810 H   0  0
    2.4371   -0.7084   -0.7848 H   0  0
    0.8074    1.1206   -0.4720 H   0  0
   -1.5370    0.6013    0.1626 H   0  0
   -2.2267   -1.7631    0.4740 H   0  0
   -0.5813   -3.5858    0.1876 H   0  0
    7.7943   -4.0341    0.7958 H   0  0
   12.9907   -2.6017   -1.0883 H   0  0
   11.0098   -1.1847   -1.4959 H   0  0
    8.7397   -2.1002   -1.0893 H   0  0
    9.0264   -6.3226    1.9420 H   0  0
    8.0127   -6.1109   -2.1847 H   0  0
    8.1637   -8.4802    0.9847 H   0  0
    9.9319   -8.5301    0.7839 H   0  0
    3.8659   -6.4348    1.4710 H   0  0
    2.4824   -8.4711    1.2732 H   0  0
    5.6130  -10.3840   -0.9487 H   0  0
    6.9556   -8.3285   -0.7924 H   0  0
    3.6758  -11.5653   -0.5288 H   0  0
    2.1932  -10.5818   -0.4866 H   0  0
    2.8991  -11.1931    1.0286 H   0  0
   14.0714   -6.7669    0.2956 H   0  0
   12.5032   -6.9747   -0.5197 H   0  0
   12.5611   -6.4159    1.1691 H   0  0
  1  7  1  0
  6  2  1  0
  2  3  1  0
  1  3  1  0
 19  4  1  0
  1  4  1  0
  5  1  1  0
 28  5  1  0
  6  7  4  0
  7  8  4  0
  8  9  4  0
  9 10  4  0
 10 11  4  0
 11  6  4  0
  2 12  1  0
 12 13  1  0
 13 14  4  0
 14 15  4  0
 15 16  4  0
 16 17  4  0
 17 18  4  0
 18 13  4  0
 28 19  1  0
 19 21  1  0
 27 20  1  0
 20 22  1  0
 21 22  4  0
 22 23  4  0
 23 24  4  0
 24 25  4  0
 25 26  4  0
 26 21  4  0
 28 27  1  0
 28 29  1  0
 29 30  1  0
 30 31  1  0
 27 31  1  0
  5 32  1  0
 32 33  4  0
 33 34  4  0
 34 35  4  0
 35 36  4  0
 36 37  4  0
 37 32  4  0
 30 38  2  0
  3 39  2  0
 35 40  1  0
 23 41  1  0
 41 42  1  0
  5 43  1  0
  8 44  1  0
  9 45  1  0
 10 46  1  0
 11 47  1  0
 12 48  1  0
 12 49  1  0
 14 50  1  0
 15 51  1  0
 16 52  1  0
 17 53  1  0
 18 54  1  0
 19 55  1  0
 24 56  1  0
 25 57  1  0
 26 58  1  0
 27 59  1  0
 29 60  1  0
 31 61  1  0
 31 62  1  0
 33 63  1  0
 34 64  1  0
 36 65  1  0
 37 66  1  0
 40 67  1  0
 40 68  1  0
 40 69  1  0
 42 70  1  0
 42 71  1  0
 42 72  1  0
M  END
> <Name>
Molecule

> <Clean Energy>
223.145

> <From>
www.bindingDB.org

> <BindingDB Reactant_set_id>
50707601

> <Ligand InChI>
InChI=1S/C35H30N2O5/c1-21-15-17-23(18-16-21)31-34-28(19-29(38)36-34)41-30-24(11-8-14-27(30)40-2)32(34)42-35(31)25-12-6-7-13-26(25)37(33(35)39)20-22-9-4-3-5-10-22/h3-18,28,31-32H,19-20H2,1-2H3,(H,36,38
)/t28-,31+,32+,34-,35-/m1/s1

> <Ligand InChI Key>
IKIIZHOJZSAECR-IYCGSLBKSA-N

> <BindingDB MonomerID>
50234360

> <BindingDB Ligand Name>
CHEMBL4090444

> <Target Name>
Tyrosine-protein phosphatase non-receptor type 1

> <Target Source Organism According to Curator or DataSource>
Homo sapiens

> <IC50 (nM)>
7070

> <Curation/DataSource>
ChEMBL

> <Article DOI>
10.1016/j.bmcl.2016.11.055

> <BindingDB Entry DOI>
10.7270/Q2W66P1R

> <PMID>
28111140

> <Authors>
Dong, S; Lei, Y; Jia, S; Gao, L; Li, J; Zhu, T; Liu, S; Hu, W

> <Institution>
East China Normal University

> <Link to Ligand in BindingDB>
http://www.bindingdb.org/bind/chemsearch/marvin/MolStructure.jsp?monomerid=50234360

> <Link to Ligand-Target Pair in BindingDB>
http://www.bindingdb.org/jsp/dbsearch/PrimarySearch_ki.jsp?energyterm=kJ/mole&tag=pol&polymerid=2622&target=Tyrosine-protein+phosphatase+non-receptor+type+1&column=ki&startPg=0&Increment=50&submit=Sea
rch
http://www.bindingdb.org/jsp/dbsearch/PrimarySearch_ki.jsp?energyterm=kJ/mole&tag=r21&monomerid=50234360&enzyme=Tyrosine-protein+phosphatase+non-receptor+type+1&column=ki&startPg=0&Increment=50&submit
=Search

> <PubChem CID of Ligand>
137644229

> <PubChem SID of Ligand>
384584542

> <ChEMBL ID of Ligand>
CHEMBL4090444

> <Number of Protein Chains in Target (bigger than 1 implies a multichain complex)>
1

> <BindingDB Target Chain Sequence>
MEMEKEFEQIDKSGSWAAIYQDIRHEASDFPCRVAKLPKNKNRNRYRDVSPFDHSRIKLHQEDNDYINASLIKMEEAQRSYILTQGPLPNTCGHFWEMVWEQKSRGVVMLNRVMEKGSLKCAQYWPQKEEKEMIFEDTNLKLTLISEDIKSYYTVRQLELENLTTQETREILHFHYTTWPDFGVPESPASFLNFLFKVRE
SGSLSPEHGPVVVHCSAGIGRSGTFCLADTCLLLMDKRKDPSSVDIKKVLLEMRKFRMGLIQTADQLRFSYLAVIEGAKFIMGDSSVQDQWKELSHEDLEPPPEHIPPPPRPPKRILEPHNGKCREFFPNHQWVKEETQEDKDCPIKEEKGSPLNAAPYGIESMSQDTEVRSRVVGGSLRGAQAASPAKGEPSLPEKDED
HALSYWKPFLVNMCVATVLTAGAYLCYRFLFNSNT

> <PDB ID(s) of Target Chain>
1BZJ,1G7G,1GFY,1JF7,1KAK,1KAV,1LQF,1NL9,1NNY,1NO6,1NZ7,1OEM,1OEO,1OES,1OET,1OEU,1OEV,1ONY,1ONZ,1PH0,1PXH,1PYN,1Q1M,1Q6J,1Q6M,1Q6N,1Q6P,1Q6S,1Q6T,1QXK,1SUG,1T48,1T49,1T4J,1WAX,1XBO,2AZR,2B07,2BGD,2BGE,
2CM2,2CM3,2CM7,2CM8,2CMA,2CMB,2CMC,2CNE,2CNF,2CNG,2CNH,2CNI,2F6T,2F6V,2F6W,2F6Y,2F6Z,2F70,2F71,2FJN,2H4G,2H4K,2HB1,2HNP,2HNQ,2QBP,2QBQ,2QBR,2QBS,2VEU,2VEV,2VEW,2VEX,2VEY,2ZMM,2ZN7,3A5J,3CWE,3D9C,3EAX,
3EB1,3EU0,3I7Z,3I80,3SME,4BJO,4I8N,4QBW,4Y14,5K9V,5K9W,5KA0,5KA1,5T19,6B90,6NTP,6W30,7KEY,7KLX,7LFO,7MN9,7MNA,8DU7,8G65,8G67,8G68,8G69,8G6A,8SKL

> <UniProt (SwissProt) Recommended Name of Target Chain>
Tyrosine-protein phosphatase non-receptor type 1

> <UniProt (SwissProt) Entry Name of Target Chain>
PTN1_HUMAN

> <UniProt (SwissProt) Primary ID of Target Chain>
P18031

> <UniProt (SwissProt) Secondary ID(s) of Target Chain>
Q5TGD8 Q9BQV9 Q9NQQ4

$$$$
Molecule
  SciTegic10242319433D

 59 62  0  0  0  0            999 V2000
    2.8527   -0.9328    0.5766 C   0  0
    2.6901    0.3902   -0.2215 C   0  0  1  0  0  0
    1.3606    1.2272    0.1428 C   0  0
    3.8682   -1.6253    0.4613 O   0  0
    1.8470   -1.3897    1.4122 O   0  0
    5.1974    0.8135   -0.3147 C   0  0
    6.3851    1.6911   -0.1411 C   0  0
    7.5795    1.0896   -0.2147 C   0  0
    5.4114   -0.3564   -0.6389 O   0  0
    3.9294    1.2564   -0.1146 N   0  0
    8.8873    1.7755   -0.0876 C   0  0
    8.9772    3.1007    0.0226 C   0  0
   10.3044    3.7364    0.1365 C   0  0
   11.4106    2.9914    0.1311 C   0  0
   11.3102    1.5376    0.0128 C   0  0
   10.1141    0.9611   -0.0920 C   0  0
   -3.7642   -1.4019   -0.3759 C   0  0
   -5.0127   -0.6814   -0.0958 C   0  0
   -4.9522    0.6107    0.2441 C   0  0
   -3.6303    1.2875    0.3517 C   0  0
   -2.5054    0.6059    0.0990 C   0  0
   -1.1632    1.2369    0.2278 C   0  0
   -0.0471    0.5331   -0.0403 C   0  0
   -0.1756   -0.8834   -0.4826 C   0  0
   -1.3566   -1.4961   -0.5847 C   0  0
   -2.5876   -0.7844   -0.2845 C   0  0
   -6.2491   -1.3827   -0.1985 O   0  0
   -7.4030   -0.5612    0.0737 C   0  0
   -8.7268   -1.3535    0.0358 C   0  0
   -8.7679   -2.6947   -0.0206 C   0  0
  -10.0652   -3.3892   -0.0517 C   0  0
  -11.2022   -2.6982   -0.0249 C   0  0
  -11.1639   -1.2403    0.0369 C   0  0
   -9.9936   -0.6028    0.0667 C   0  0
   -7.6485   -3.4289   -0.0443 F   0  0
    2.5998    0.1087   -1.2706 H   0  0
    1.4413    1.5173    1.1904 H   0  0
    1.3619    2.1196   -0.4830 H   0  0
    1.6605   -0.6757    2.1592 H   0  0
    6.2892    2.7623    0.0359 H   0  0
    7.5906    0.0124   -0.3810 H   0  0
    3.7959    2.2881    0.1358 H   0  0
    8.0749    3.7122    0.0285 H   0  0
   10.3809    4.8200    0.2256 H   0  0
   12.3883    3.4659    0.2147 H   0  0
   12.2128    0.9266    0.0103 H   0  0
   10.0427   -0.1228   -0.1818 H   0  0
   -3.8008   -2.4532   -0.6616 H   0  0
   -5.8684    1.1670    0.4419 H   0  0
   -3.5781    2.3384    0.6364 H   0  0
   -1.0834    2.2776    0.5419 H   0  0
    0.7280   -1.4398   -0.7320 H   0  0
   -1.3985   -2.5399   -0.8961 H   0  0
   -7.4502    0.2306   -0.6740 H   0  0
   -7.2900   -0.1202    1.0641 H   0  0
  -10.0949   -4.4778   -0.0970 H   0  0
  -12.1593   -3.2193   -0.0490 H   0  0
  -12.0937   -0.6719    0.0587 H   0  0
   -9.9739    0.4859    0.1143 H   0  0
  1  2  1  0
  2  3  1  0
  1  4  2  0
  1  5  1  0
  6  7  1  0
  7  8  2  0
  6  9  2  0
  6 10  1  0
 11 12  2  0
 12 13  1  0
 13 14  2  0
 14 15  1  0
 15 16  2  0
 11 16  1  0
  8 11  1  0
  2 10  1  0
 17 18  1  0
 18 19  2  0
 19 20  1  0
 20 21  2  0
 21 22  1  0
 22 23  2  0
 23 24  1  0
 24 25  2  0
 25 26  1  0
 17 26  2  0
 21 26  1  0
 28 29  1  0
 29 30  2  0
 30 31  1  0
 31 32  2  0
 32 33  1  0
 33 34  2  0
 29 34  1  0
 27 28  1  0
 30 35  1  0
 18 27  1  0
  3 23  1  0
  2 36  1  0
  3 37  1  0
  3 38  1  0
  5 39  1  0
  7 40  1  0
  8 41  1  0
 10 42  1  0
 12 43  1  0
 13 44  1  0
 14 45  1  0
 15 46  1  0
 16 47  1  0
 17 48  1  0
 19 49  1  0
 20 50  1  0
 22 51  1  0
 24 52  1  0
 25 53  1  0
 28 54  1  0
 28 55  1  0
 31 56  1  0
 32 57  1  0
 33 58  1  0
 34 59  1  0
M  END
> <Name>
Molecule

> <Clean Energy>
13.3231

> <From>
www.bindingDB.org

> <BindingDB Reactant_set_id>
50657312

> <Ligand InChI>
InChI=1S/C29H24FNO4/c30-26-9-5-4-8-24(26)19-35-25-14-13-22-16-21(10-12-23(22)18-25)17-27(29(33)34)31-28(32)15-11-20-6-2-1-3-7-20/h1-16,18,27H,17,19H2,(H,31,32)(H,33,34)/b15-11+

> <Ligand InChI Key>
RSYBBAMATGHJRC-RVDMUPIBSA-N

> <BindingDB MonomerID>
50351796

> <BindingDB Ligand Name>
CHEMBL1823758

> <Target Name>
Tyrosine-protein phosphatase non-receptor type 1

> <Target Source Organism According to Curator or DataSource>
Homo sapiens

> <IC50 (nM)>
8880

> <Curation/DataSource>
ChEMBL

> <Article DOI>
10.1016/j.ejmech.2011.05.027

> <BindingDB Entry DOI>
10.7270/Q2W09685

> <PMID>
21680062

> <Authors>
Sun, LP; Shen, Q; Piao, HH; Ma, WP; Gao, LX; Zhang, W; Nan, FJ; Li, J; Piao, HR

> <Institution>
Yanbian University

> <Link to Ligand in BindingDB>
http://www.bindingdb.org/bind/chemsearch/marvin/MolStructure.jsp?monomerid=50351796

> <Link to Ligand-Target Pair in BindingDB>
http://www.bindingdb.org/jsp/dbsearch/PrimarySearch_ki.jsp?energyterm=kJ/mole&tag=pol&polymerid=2622&target=Tyrosine-protein+phosphatase+non-receptor+type+1&column=ki&startPg=0&Increment=50&submit=Sea
rch
http://www.bindingdb.org/jsp/dbsearch/PrimarySearch_ki.jsp?energyterm=kJ/mole&tag=r21&monomerid=50351796&enzyme=Tyrosine-protein+phosphatase+non-receptor+type+1&column=ki&startPg=0&Increment=50&submit
=Search

> <PubChem CID of Ligand>
54768350

> <PubChem SID of Ligand>
136358482

> <ChEMBL ID of Ligand>
CHEMBL1823758

> <ZINC ID of Ligand>
ZINC72179291

> <Number of Protein Chains in Target (bigger than 1 implies a multichain complex)>
1

> <BindingDB Target Chain Sequence>
MEMEKEFEQIDKSGSWAAIYQDIRHEASDFPCRVAKLPKNKNRNRYRDVSPFDHSRIKLHQEDNDYINASLIKMEEAQRSYILTQGPLPNTCGHFWEMVWEQKSRGVVMLNRVMEKGSLKCAQYWPQKEEKEMIFEDTNLKLTLISEDIKSYYTVRQLELENLTTQETREILHFHYTTWPDFGVPESPASFLNFLFKVRE
SGSLSPEHGPVVVHCSAGIGRSGTFCLADTCLLLMDKRKDPSSVDIKKVLLEMRKFRMGLIQTADQLRFSYLAVIEGAKFIMGDSSVQDQWKELSHEDLEPPPEHIPPPPRPPKRILEPHNGKCREFFPNHQWVKEETQEDKDCPIKEEKGSPLNAAPYGIESMSQDTEVRSRVVGGSLRGAQAASPAKGEPSLPEKDED
HALSYWKPFLVNMCVATVLTAGAYLCYRFLFNSNT

> <PDB ID(s) of Target Chain>
1BZJ,1G7G,1GFY,1JF7,1KAK,1KAV,1LQF,1NL9,1NNY,1NO6,1NZ7,1OEM,1OEO,1OES,1OET,1OEU,1OEV,1ONY,1ONZ,1PH0,1PXH,1PYN,1Q1M,1Q6J,1Q6M,1Q6N,1Q6P,1Q6S,1Q6T,1QXK,1SUG,1T48,1T49,1T4J,1WAX,1XBO,2AZR,2B07,2BGD,2BGE,
2CM2,2CM3,2CM7,2CM8,2CMA,2CMB,2CMC,2CNE,2CNF,2CNG,2CNH,2CNI,2F6T,2F6V,2F6W,2F6Y,2F6Z,2F70,2F71,2FJN,2H4G,2H4K,2HB1,2HNP,2HNQ,2QBP,2QBQ,2QBR,2QBS,2VEU,2VEV,2VEW,2VEX,2VEY,2ZMM,2ZN7,3A5J,3CWE,3D9C,3EAX,
3EB1,3EU0,3I7Z,3I80,3SME,4BJO,4I8N,4QBW,4Y14,5K9V,5K9W,5KA0,5KA1,5T19,6B90,6NTP,6W30,7KEY,7KLX,7LFO,7MN9,7MNA,8DU7,8G65,8G67,8G68,8G69,8G6A,8SKL

> <UniProt (SwissProt) Recommended Name of Target Chain>
Tyrosine-protein phosphatase non-receptor type 1

> <UniProt (SwissProt) Entry Name of Target Chain>
PTN1_HUMAN

> <UniProt (SwissProt) Primary ID of Target Chain>
P18031

> <UniProt (SwissProt) Secondary ID(s) of Target Chain>
Q5TGD8 Q9BQV9 Q9NQQ4

$$$$
Molecule
  SciTegic10242319433D

 28 29  0  0  0  0            999 V2000
   33.9969   -4.7715   -0.5473 C   0  0
   35.1638   -4.0841   -0.0079 O   0  0
   35.1507   -2.7479    0.4557 C   0  0
   33.9438   -1.8968    0.2268 C   0  0  2  0  0  0
   32.7355   -4.0617   -0.1046 C   0  0
   32.7484   -2.7891    0.5806 C   0  0  2  0  0  0
   31.3527   -2.2733    0.2270 C   0  0  1  0  0  0
   30.5016   -3.5324    0.4659 C   0  0
   31.4836   -4.5172   -0.1860 C   0  0
   30.9420   -1.0995    0.9299 O   0  0
   31.0963   -5.8417   -0.7737 C   0  0
   36.1649   -2.2580    0.9635 O   0  0
   32.7889   -3.0238    1.6528 H   0  0
   33.9322   -1.4885   -1.2801 C   0  0
   35.0979   -0.7159   -1.5686 O   0  0
   33.9812   -5.7986   -0.1829 H   0  0
   34.0485   -4.7724   -1.6361 H   0  0
   33.9680   -1.0137    0.8653 H   0  0
   31.3351   -2.0514   -0.8400 H   0  0
   30.3408   -3.7370    1.5243 H   0  0
   29.5408   -3.4944   -0.0474 H   0  0
   30.9362   -1.2930    1.9619 H   0  0
   31.9829   -6.3379   -1.1684 H   0  0
   30.3786   -5.6864   -1.5792 H   0  0
   30.6456   -6.4647   -0.0011 H   0  0
   33.9271   -2.3851   -1.9000 H   0  0
   33.0417   -0.8961   -1.4898 H   0  0
   35.1029    0.1474   -0.9709 H   0  0
  6  4  1  0
  5  1  1  0
  1  2  1  0
  2  3  1  0
  3  4  1  0
  5  6  1  0
  6  7  1  0
  7  8  1  0
  8  9  1  0
  9  5  2  0
  7 10  1  0
  9 11  1  0
  3 12  2  0
  6 13  1  0
  4 14  1  0
 14 15  1  0
  1 16  1  0
  1 17  1  0
  4 18  1  0
  7 19  1  0
  8 20  1  0
  8 21  1  0
 10 22  1  0
 11 23  1  0
 11 24  1  0
 11 25  1  0
 14 26  1  0
 14 27  1  0
 15 28  1  0
M  END
> <Name>
Molecule

> <Clean Energy>
50.4901

> <From>
www.bindingDB.org

> <BindingDB Reactant_set_id>
51306843

> <Ligand InChI>
InChI=1S/C10H14O4/c1-5-2-8(12)9-6(3-11)10(13)14-4-7(5)9/h6,8-9,11-12H,2-4H2,1H3/t6-,8+,9+/m0/s1

> <Ligand InChI Key>
QRRJKZPKFWDJHK-NBEYISGCSA-N

> <BindingDB MonomerID>
50530824

> <BindingDB Ligand Name>
CHEMBL4518867

> <Target Name>
Tyrosine-protein phosphatase non-receptor type 1

> <Target Source Organism According to Curator or DataSource>
Homo sapiens

> <IC50 (nM)>
8900

> <Curation/DataSource>
ChEMBL

> <Article DOI>
10.1021/acs.jnatprod.9b00770

> <BindingDB Entry DOI>
10.7270/Q2W66Q89

> <PMID>
31618031

> <Authors>
Zhou, J; Wu, Z; Oyawaluja, BO; Coker, HAB; Odukoya, OA; Yao, G; Che, CT

> <Institution>
University of Illinois at Chicago

> <Link to Ligand in BindingDB>
http://www.bindingdb.org/bind/chemsearch/marvin/MolStructure.jsp?monomerid=50530824

> <Link to Ligand-Target Pair in BindingDB>
http://www.bindingdb.org/jsp/dbsearch/PrimarySearch_ki.jsp?energyterm=kJ/mole&tag=pol&polymerid=2622&target=Tyrosine-protein+phosphatase+non-receptor+type+1&column=ki&startPg=0&Increment=50&submit=Sea
rch
http://www.bindingdb.org/jsp/dbsearch/PrimarySearch_ki.jsp?energyterm=kJ/mole&tag=r21&monomerid=50530824&enzyme=Tyrosine-protein+phosphatase+non-receptor+type+1&column=ki&startPg=0&Increment=50&submit
=Search

> <PubChem CID of Ligand>
155541505

> <PubChem SID of Ligand>
440739406

> <Number of Protein Chains in Target (bigger than 1 implies a multichain complex)>
1

> <BindingDB Target Chain Sequence>
MEMEKEFEQIDKSGSWAAIYQDIRHEASDFPCRVAKLPKNKNRNRYRDVSPFDHSRIKLHQEDNDYINASLIKMEEAQRSYILTQGPLPNTCGHFWEMVWEQKSRGVVMLNRVMEKGSLKCAQYWPQKEEKEMIFEDTNLKLTLISEDIKSYYTVRQLELENLTTQETREILHFHYTTWPDFGVPESPASFLNFLFKVRE
SGSLSPEHGPVVVHCSAGIGRSGTFCLADTCLLLMDKRKDPSSVDIKKVLLEMRKFRMGLIQTADQLRFSYLAVIEGAKFIMGDSSVQDQWKELSHEDLEPPPEHIPPPPRPPKRILEPHNGKCREFFPNHQWVKEETQEDKDCPIKEEKGSPLNAAPYGIESMSQDTEVRSRVVGGSLRGAQAASPAKGEPSLPEKDED
HALSYWKPFLVNMCVATVLTAGAYLCYRFLFNSNT

> <PDB ID(s) of Target Chain>
1BZJ,1G7G,1GFY,1JF7,1KAK,1KAV,1LQF,1NL9,1NNY,1NO6,1NZ7,1OEM,1OEO,1OES,1OET,1OEU,1OEV,1ONY,1ONZ,1PH0,1PXH,1PYN,1Q1M,1Q6J,1Q6M,1Q6N,1Q6P,1Q6S,1Q6T,1QXK,1SUG,1T48,1T49,1T4J,1WAX,1XBO,2AZR,2B07,2BGD,2BGE,
2CM2,2CM3,2CM7,2CM8,2CMA,2CMB,2CMC,2CNE,2CNF,2CNG,2CNH,2CNI,2F6T,2F6V,2F6W,2F6Y,2F6Z,2F70,2F71,2FJN,2H4G,2H4K,2HB1,2HNP,2HNQ,2QBP,2QBQ,2QBR,2QBS,2VEU,2VEV,2VEW,2VEX,2VEY,2ZMM,2ZN7,3A5J,3CWE,3D9C,3EAX,
3EB1,3EU0,3I7Z,3I80,3SME,4BJO,4I8N,4QBW,4Y14,5K9V,5K9W,5KA0,5KA1,5T19,6B90,6NTP,6W30,7KEY,7KLX,7LFO,7MN9,7MNA,8DU7,8G65,8G67,8G68,8G69,8G6A,8SKL

> <UniProt (SwissProt) Recommended Name of Target Chain>
Tyrosine-protein phosphatase non-receptor type 1

> <UniProt (SwissProt) Entry Name of Target Chain>
PTN1_HUMAN

> <UniProt (SwissProt) Primary ID of Target Chain>
P18031

> <UniProt (SwissProt) Secondary ID(s) of Target Chain>
Q5TGD8 Q9BQV9 Q9NQQ4

$$$$
Molecule
  SciTegic10242319433D

 44 46  0  0  0  0            999 V2000
    4.3629  -19.9788   -0.0003 C   0  0
    4.4875  -21.4349    0.0000 C   0  0
    5.7005  -21.9970   -0.0001 C   0  0
    5.8448  -23.4695    0.0002 C   0  0
    4.7480  -24.2227    0.0005 C   0  0
    3.4154  -23.5993    0.0006 C   0  0
    3.2961  -22.2737    0.0003 C   0  0
    3.2387  -19.4569   -0.0003 O   0  0
    5.4988  -19.1791   -0.0006 O   0  0
    4.8649  -25.7185    0.0008 C   0  0
    8.3171  -23.4632    0.0000 C   0  0
    9.6284  -24.2274   -0.0001 C   0  0
    8.3705  -22.2277   -0.0001 O   0  0
    7.1383  -24.1141    0.0002 N   0  0
    9.4010  -26.0294    0.0000 S   0  0
   11.2323  -28.1411   -0.0001 O   0  0
   11.0102  -26.8100   -0.0001 C   0  0
   12.1185  -26.1820   -0.0002 N   0  0
   13.1140  -27.0983   -0.0003 N   0  0
   12.5772  -28.2520   -0.0002 C   0  0
   13.3198  -29.5190   -0.0002 C   0  0
   14.6530  -29.5113   -0.0002 C   0  0
   15.3954  -30.7775   -0.0002 C   0  0
   14.7367  -31.9356   -0.0001 C   0  0
   13.2711  -31.9435   -0.0001 C   0  0
   12.5971  -30.7938   -0.0001 C   0  0
   15.4950  -33.2325   -0.0001 C   0  0
    6.5893  -21.3661   -0.0003 H   0  0
    2.5229  -24.2251    0.0008 H   0  0
    2.3071  -21.8156    0.0003 H   0  0
    6.0704  -19.3818    0.8566 H   0  0
    3.8689  -26.1613    0.0010 H   0  0
    5.4055  -26.0411    0.8907 H   0  0
    5.4053  -26.0415   -0.8891 H   0  0
   10.1923  -23.9488   -0.8903 H   0  0
   10.1924  -23.9487    0.8900 H   0  0
    7.1608  -25.1838    0.0003 H   0  0
   15.1921  -28.5640   -0.0003 H   0  0
   16.4853  -30.7703   -0.0003 H   0  0
   12.7317  -32.8907    0.0000 H   0  0
   11.5071  -30.8016    0.0000 H   0  0
   14.7917  -34.0652   -0.0001 H   0  0
   16.1222  -33.2873    0.8897 H   0  0
   16.1221  -33.2873   -0.8900 H   0  0
  1  2  1  0
  2  3  2  0
  3  4  1  0
  4  5  2  0
  5  6  1  0
  6  7  2  0
  2  7  1  0
  1  8  2  0
  1  9  1  0
  5 10  1  0
 11 12  1  0
 11 13  2  0
 11 14  1  0
 16 17  1  0
 17 18  2  0
 18 19  1  0
 19 20  2  0
 16 20  1  0
 15 17  1  0
 21 22  2  0
 22 23  1  0
 23 24  2  0
 24 25  1  0
 25 26  2  0
 21 26  1  0
 20 21  1  0
 12 15  1  0
  4 14  1  0
 24 27  1  0
  3 28  1  0
  6 29  1  0
  7 30  1  0
  9 31  1  0
 10 32  1  0
 10 33  1  0
 10 34  1  0
 12 35  1  0
 12 36  1  0
 14 37  1  0
 22 38  1  0
 23 39  1  0
 25 40  1  0
 26 41  1  0
 27 42  1  0
 27 43  1  0
 27 44  1  0
M  END
> <Name>
Molecule

> <Clean Energy>
16.1436

> <From>
www.bindingDB.org

> <BindingDB Reactant_set_id>
51083879

> <Ligand InChI>
InChI=1S/C19H17N3O4S/c1-11-3-6-13(7-4-11)17-21-22-19(26-17)27-10-16(23)20-15-9-14(18(24)25)8-5-12(15)2/h3-9H,10H2,1-2H3,(H,20,23)(H,24,25)

> <Ligand InChI Key>
CQPJKQYYYSQKRK-UHFFFAOYSA-N

> <BindingDB MonomerID>
50443461

> <BindingDB Ligand Name>
CHEMBL3087456

> <Target Name>
Tyrosine-protein phosphatase non-receptor type 1

> <Target Source Organism According to Curator or DataSource>
Homo sapiens

> <IC50 (nM)>
8900

> <Curation/DataSource>
ChEMBL

> <Article DOI>
10.1016/j.ejmech.2013.10.030

> <BindingDB Entry DOI>
10.7270/Q20R9QWZ

> <PMID>
24185377

> <Authors>
Rakse, M; Karthikeyan, C; Deora, GS; Moorthy, NS; Rathore, V; Rawat, AK; Srivastava, AK; Trivedi, P

> <Institution>
School of Pharmaceutical Sciences

> <Link to Ligand in BindingDB>
http://www.bindingdb.org/bind/chemsearch/marvin/MolStructure.jsp?monomerid=50443461

> <Link to Ligand-Target Pair in BindingDB>
http://www.bindingdb.org/jsp/dbsearch/PrimarySearch_ki.jsp?energyterm=kJ/mole&tag=pol&polymerid=2622&target=Tyrosine-protein+phosphatase+non-receptor+type+1&column=ki&startPg=0&Increment=50&submit=Sea
rch
http://www.bindingdb.org/jsp/dbsearch/PrimarySearch_ki.jsp?energyterm=kJ/mole&tag=r21&monomerid=50443461&enzyme=Tyrosine-protein+phosphatase+non-receptor+type+1&column=ki&startPg=0&Increment=50&submit
=Search

> <PubChem CID of Ligand>
45474108

> <PubChem SID of Ligand>
194941357

> <ChEMBL ID of Ligand>
CHEMBL3087456

> <Number of Protein Chains in Target (bigger than 1 implies a multichain complex)>
1

> <BindingDB Target Chain Sequence>
MEMEKEFEQIDKSGSWAAIYQDIRHEASDFPCRVAKLPKNKNRNRYRDVSPFDHSRIKLHQEDNDYINASLIKMEEAQRSYILTQGPLPNTCGHFWEMVWEQKSRGVVMLNRVMEKGSLKCAQYWPQKEEKEMIFEDTNLKLTLISEDIKSYYTVRQLELENLTTQETREILHFHYTTWPDFGVPESPASFLNFLFKVRE
SGSLSPEHGPVVVHCSAGIGRSGTFCLADTCLLLMDKRKDPSSVDIKKVLLEMRKFRMGLIQTADQLRFSYLAVIEGAKFIMGDSSVQDQWKELSHEDLEPPPEHIPPPPRPPKRILEPHNGKCREFFPNHQWVKEETQEDKDCPIKEEKGSPLNAAPYGIESMSQDTEVRSRVVGGSLRGAQAASPAKGEPSLPEKDED
HALSYWKPFLVNMCVATVLTAGAYLCYRFLFNSNT

> <PDB ID(s) of Target Chain>
1BZJ,1G7G,1GFY,1JF7,1KAK,1KAV,1LQF,1NL9,1NNY,1NO6,1NZ7,1OEM,1OEO,1OES,1OET,1OEU,1OEV,1ONY,1ONZ,1PH0,1PXH,1PYN,1Q1M,1Q6J,1Q6M,1Q6N,1Q6P,1Q6S,1Q6T,1QXK,1SUG,1T48,1T49,1T4J,1WAX,1XBO,2AZR,2B07,2BGD,2BGE,
2CM2,2CM3,2CM7,2CM8,2CMA,2CMB,2CMC,2CNE,2CNF,2CNG,2CNH,2CNI,2F6T,2F6V,2F6W,2F6Y,2F6Z,2F70,2F71,2FJN,2H4G,2H4K,2HB1,2HNP,2HNQ,2QBP,2QBQ,2QBR,2QBS,2VEU,2VEV,2VEW,2VEX,2VEY,2ZMM,2ZN7,3A5J,3CWE,3D9C,3EAX,
3EB1,3EU0,3I7Z,3I80,3SME,4BJO,4I8N,4QBW,4Y14,5K9V,5K9W,5KA0,5KA1,5T19,6B90,6NTP,6W30,7KEY,7KLX,7LFO,7MN9,7MNA,8DU7,8G65,8G67,8G68,8G69,8G6A,8SKL

> <UniProt (SwissProt) Recommended Name of Target Chain>
Tyrosine-protein phosphatase non-receptor type 1

> <UniProt (SwissProt) Entry Name of Target Chain>
PTN1_HUMAN

> <UniProt (SwissProt) Primary ID of Target Chain>
P18031

> <UniProt (SwissProt) Secondary ID(s) of Target Chain>
Q5TGD8 Q9BQV9 Q9NQQ4

$$$$
Molecule
  SciTegic10242319433D

 48 51  0  0  0  0            999 V2000
   10.3764   -0.3184    0.7656 O   0  0
   11.5804   -0.8498    0.0113 S   0  0
   11.5107   -0.3538   -1.4205 O   0  0
    9.6365  -10.8780   -0.0037 N   0  0
   11.0182  -10.8827   -0.0042 N   0  0
   11.4872   -9.6289   -0.0060 C   0  0
   10.3601   -8.7776   -0.0065 C   0  0
    9.2214   -9.6654   -0.0050 C   0  0
    7.8044   -9.2727   -0.0042 C   0  0
    7.4503   -7.9885   -0.0053 C   0  0
    6.0342   -7.6166   -0.0039 C   0  0
    5.0972   -8.5630   -0.0015 C   0  0
    5.4827   -9.9750   -0.0003 C   0  0
    6.7711  -10.3129   -0.0016 C   0  0
    3.7483   -8.2082    0.0000 N   0  3
    2.9211   -9.0434    0.0022 O   0  0
    3.4003   -6.9303   -0.0010 O   0  5
   11.7902  -12.0675   -0.0028 C   0  0
   11.1698  -13.2470   -0.0006 C   0  0
   11.9467  -14.4911    0.0011 C   0  0
   13.2777  -14.4461    0.0005 C   0  0
   13.9649  -13.1536   -0.0018 C   0  0
   13.2598  -12.0233   -0.0034 C   0  0
   12.6702   -9.2676   -0.0068 O   0  0
   10.3595   -7.5037   -0.0075 N   0  0
   11.5101   -6.8307   -0.0079 N   0  0
   11.5182   -5.4274   -0.0043 C   0  0
   12.6787   -4.7724    0.0022 C   0  0
   12.6975   -3.3056    0.0070 C   0  0
   11.5533   -2.6241    0.0047 C   0  0
   10.2734   -3.3433   -0.0028 C   0  0
   10.2563   -4.6771   -0.0070 C   0  0
   13.0263   -0.2949    0.7133 O   0  0
   14.1936  -15.9126    0.0026 Cl  0  0
    8.2163   -7.2131   -0.0072 H   0  0
    5.7469   -6.5652   -0.0049 H   0  0
    4.7159  -10.7496    0.0016 H   0  0
    7.0577  -11.3646   -0.0008 H   0  0
   10.0806  -13.2873   -0.0001 H   0  0
   11.4342  -15.4531    0.0028 H   0  0
   15.0543  -13.1159   -0.0023 H   0  0
   13.7742  -11.0623   -0.0052 H   0  0
   12.4367   -7.3657   -0.0109 H   0  0
   13.6164   -5.3280    0.0040 H   0  0
   13.6486   -2.7731    0.0124 H   0  0
    9.3362   -2.7868   -0.0049 H   0  0
    9.3054   -5.2099   -0.0124 H   0  0
   13.0479    0.7546    0.6882 H   0  0
  2  1  2  0
  3  2  2  0
  4  5  1  0
  5  6  1  0
  6  7  1  0
  7  8  1  0
  8  4  2  0
  9 10  2  0
 10 11  1  0
 11 12  2  0
 12 13  1  0
 13 14  2  0
 14  9  1  0
  8  9  1  0
 15 16  2  0
 15 17  1  0
 12 15  1  0
 18 19  2  0
 19 20  1  0
 20 21  2  0
 21 22  1  0
 22 23  2  0
 23 18  1  0
  5 18  1  0
  6 24  2  0
  7 25  2  0
 25 26  1  0
 26 27  1  0
 27 28  2  0
 28 29  1  0
 29 30  2  0
 30 31  1  0
 31 32  2  0
 32 27  1  0
 30  2  1  0
  2 33  1  0
 21 34  1  0
 10 35  1  0
 11 36  1  0
 13 37  1  0
 14 38  1  0
 19 39  1  0
 20 40  1  0
 22 41  1  0
 23 42  1  0
 26 43  1  0
 28 44  1  0
 29 45  1  0
 31 46  1  0
 32 47  1  0
 33 48  1  0
M  CHG  2  15   1  17  -1
M  END
> <Name>
Molecule

> <Clean Energy>
23.8814

> <From>
www.bindingDB.org

> <BindingDB Reactant_set_id>
51350372

> <Ligand InChI>
InChI=1S/C21H14ClN5O6S/c22-14-3-9-16(10-4-14)26-21(28)20(19(25-26)13-1-7-17(8-2-13)27(29)30)24-23-15-5-11-18(12-6-15)34(31,32)33/h1-12,23H,(H,31,32,33)/b24-20-

> <Ligand InChI Key>
ZHQLSYWPGHMSAJ-GFMRDNFCSA-N

> <BindingDB MonomerID>
50546231

> <BindingDB Ligand Name>
CHEMBL4746515

> <Target Name>
Tyrosine-protein phosphatase non-receptor type 1

> <Target Source Organism According to Curator or DataSource>
Homo sapiens

> <IC50 (nM)>
8930

> <Curation/DataSource>
ChEMBL

> <Article DOI>
10.1021/acs.jmedchem.0c00249

> <BindingDB Entry DOI>
10.7270/Q2736VH5

> <PMID>
32460492

> <Authors>
Yuan, X; Bu, H; Zhou, J; Yang, CY; Zhang, H

> <Institution>
China Pharmaceutical University

> <Link to Ligand in BindingDB>
http://www.bindingdb.org/bind/chemsearch/marvin/MolStructure.jsp?monomerid=50546231

> <Link to Ligand-Target Pair in BindingDB>
http://www.bindingdb.org/jsp/dbsearch/PrimarySearch_ki.jsp?energyterm=kJ/mole&tag=pol&polymerid=2622&target=Tyrosine-protein+phosphatase+non-receptor+type+1&column=ki&startPg=0&Increment=50&submit=Sea
rch
http://www.bindingdb.org/jsp/dbsearch/PrimarySearch_ki.jsp?energyterm=kJ/mole&tag=r21&monomerid=50546231&enzyme=Tyrosine-protein+phosphatase+non-receptor+type+1&column=ki&startPg=0&Increment=50&submit
=Search

> <PubChem CID of Ligand>
162648679

> <PubChem SID of Ligand>
461689994

> <Number of Protein Chains in Target (bigger than 1 implies a multichain complex)>
1

> <BindingDB Target Chain Sequence>
MEMEKEFEQIDKSGSWAAIYQDIRHEASDFPCRVAKLPKNKNRNRYRDVSPFDHSRIKLHQEDNDYINASLIKMEEAQRSYILTQGPLPNTCGHFWEMVWEQKSRGVVMLNRVMEKGSLKCAQYWPQKEEKEMIFEDTNLKLTLISEDIKSYYTVRQLELENLTTQETREILHFHYTTWPDFGVPESPASFLNFLFKVRE
SGSLSPEHGPVVVHCSAGIGRSGTFCLADTCLLLMDKRKDPSSVDIKKVLLEMRKFRMGLIQTADQLRFSYLAVIEGAKFIMGDSSVQDQWKELSHEDLEPPPEHIPPPPRPPKRILEPHNGKCREFFPNHQWVKEETQEDKDCPIKEEKGSPLNAAPYGIESMSQDTEVRSRVVGGSLRGAQAASPAKGEPSLPEKDED
HALSYWKPFLVNMCVATVLTAGAYLCYRFLFNSNT

> <PDB ID(s) of Target Chain>
1BZJ,1G7G,1GFY,1JF7,1KAK,1KAV,1LQF,1NL9,1NNY,1NO6,1NZ7,1OEM,1OEO,1OES,1OET,1OEU,1OEV,1ONY,1ONZ,1PH0,1PXH,1PYN,1Q1M,1Q6J,1Q6M,1Q6N,1Q6P,1Q6S,1Q6T,1QXK,1SUG,1T48,1T49,1T4J,1WAX,1XBO,2AZR,2B07,2BGD,2BGE,
2CM2,2CM3,2CM7,2CM8,2CMA,2CMB,2CMC,2CNE,2CNF,2CNG,2CNH,2CNI,2F6T,2F6V,2F6W,2F6Y,2F6Z,2F70,2F71,2FJN,2H4G,2H4K,2HB1,2HNP,2HNQ,2QBP,2QBQ,2QBR,2QBS,2VEU,2VEV,2VEW,2VEX,2VEY,2ZMM,2ZN7,3A5J,3CWE,3D9C,3EAX,
3EB1,3EU0,3I7Z,3I80,3SME,4BJO,4I8N,4QBW,4Y14,5K9V,5K9W,5KA0,5KA1,5T19,6B90,6NTP,6W30,7KEY,7KLX,7LFO,7MN9,7MNA,8DU7,8G65,8G67,8G68,8G69,8G6A,8SKL

> <UniProt (SwissProt) Recommended Name of Target Chain>
Tyrosine-protein phosphatase non-receptor type 1

> <UniProt (SwissProt) Entry Name of Target Chain>
PTN1_HUMAN

> <UniProt (SwissProt) Primary ID of Target Chain>
P18031

> <UniProt (SwissProt) Secondary ID(s) of Target Chain>
Q5TGD8 Q9BQV9 Q9NQQ4

$$$$
Molecule
  SciTegic10242319433D

 84 88  0  0  0  0            999 V2000
   23.1067  -19.3968   -2.3890 C   0  0
   23.1114  -20.1506   -1.0520 C   0  0
   23.0960  -19.0840    0.0854 C   0  0
   15.0061  -27.5899    1.6378 C   0  0
   15.2387  -27.1376    0.1605 C   0  0
   15.2626  -28.4278   -0.6746 C   0  0
   14.0514  -24.8780    0.4783 C   0  0
   14.0624  -26.2405   -0.3035 C   0  0  2  0  0  0
   15.3618  -24.0740    0.1459 C   0  0
   16.6026  -24.8631    0.6123 C   0  0  1  0  0  0
   16.5728  -26.2963   -0.1207 C   0  0  1  0  0  0
   17.8578  -27.1185    0.2487 C   0  0
   19.1258  -26.3525   -0.3002 C   0  0
   17.9337  -24.1487    0.1354 C   0  0  2  0  0  0
   19.2892  -24.9781    0.3789 C   0  0  2  0  0  0
   19.4216  -22.1074    0.7776 C   0  0
   18.0461  -22.7751    0.8624 C   0  0
   20.5288  -22.7138    0.3135 C   0  0
   20.4729  -24.1446   -0.3017 C   0  0  1  0  0  0
   21.8550  -24.8679   -0.1759 C   0  0
   23.1064  -23.9826   -0.6016 C   0  0  2  0  0  0
   21.8301  -21.9042    0.3394 C   0  0  1  0  0  0
   23.1318  -22.8174    0.4623 C   0  0  2  0  0  0
   24.3825  -21.8736    0.3562 C   0  0  2  0  0  0
   24.3828  -21.0553   -0.9682 C   0  0
   21.8589  -21.0653   -0.9831 C   0  0
   12.8357  -26.9438   -0.0956 O   0  0
   16.5440  -24.8924    2.1859 C   0  0
   20.1956  -24.0028   -1.8415 C   0  0
   23.0583  -23.5546   -1.9705 O   0  0
   25.5787  -22.6509    0.4338 O   0  0
   23.1899  -23.5218    1.8519 C   0  0
   24.3685  -24.3332    1.9457 O   0  0
   19.6847  -25.2231    1.8842 C   0  0
   23.1172  -20.1130   -3.2105 H   0  0
   23.9896  -18.7605   -2.4510 H   0  0
   22.2099  -18.7808   -2.4562 H   0  0
   23.0989  -19.5845    1.0536 H   0  0
   22.1993  -18.4706   -0.0032 H   0  0
   23.9789  -18.4503    0.0019 H   0  0
   14.9787  -26.7144    2.2864 H   0  0
   15.8182  -28.2469    1.9493 H   0  0
   14.0589  -28.1245    1.7097 H   0  0
   15.4227  -28.1792   -1.7237 H   0  0
   14.3114  -28.9489   -0.5663 H   0  0
   16.0707  -29.0714   -0.3268 H   0  0
   13.1809  -24.2942    0.1791 H   0  0
   14.0072  -25.0741    1.5496 H   0  0
   14.1746  -26.0350   -1.3681 H   0  0
   15.4216  -23.9120   -0.9303 H   0  0
   15.3335  -23.1120    0.6576 H   0  0
   16.6115  -26.1075   -1.1936 H   0  0
   17.9303  -27.2183    1.3317 H   0  0
   17.8026  -28.1081   -0.2050 H   0  0
   20.0146  -26.9525   -0.1051 H   0  0
   19.0142  -26.2062   -1.3746 H   0  0
   17.8461  -23.9559   -0.9338 H   0  0
   19.5090  -21.0746    1.1150 H   0  0
   17.3144  -22.0985    0.4210 H   0  0
   17.8100  -22.9298    1.9152 H   0  0
   21.9884  -25.1677    0.8635 H   0  0
   21.8339  -25.7540   -0.8104 H   0  0
   24.0063  -24.5828   -0.4667 H   0  0
   21.8005  -21.2203    1.1876 H   0  0
   24.3651  -21.1777    1.1950 H   0  0
   25.2729  -20.4271   -1.0015 H   0  0
   24.3905  -21.7424   -1.8143 H   0  0
   21.8712  -21.7466   -1.8339 H   0  0
   20.9643  -20.4441   -1.0274 H   0  0
   12.7128  -27.1386    0.9288 H   0  0
   17.4029  -25.4413    2.5718 H   0  0
   15.6254  -25.3839    2.5067 H   0  0
   16.5630  -23.8724    2.5698 H   0  0
   21.0020  -23.4350   -2.3056 H   0  0
   19.2504  -23.4820   -1.9945 H   0  0
   20.1419  -24.9930   -2.2942 H   0  0
   23.0365  -24.3948   -2.5999 H   0  0
   25.6054  -23.1627    1.3503 H   0  0
   23.2090  -22.7668    2.6378 H   0  0
   22.3086  -24.1515    1.9736 H   0  0
   24.3526  -25.0629    1.1908 H   0  0
   19.8068  -24.2647    2.3889 H   0  0
   20.6217  -25.7783    1.9285 H   0  0
   18.8998  -25.7958    2.3781 H   0  0
  2  1  1  0
  3  2  1  0
  5  4  1  0
  6  5  1  0
  8  7  1  0
  7  9  1  0
  8  5  1  0
 11  5  1  0
 10  9  1  0
 10 11  1  0
 10 14  1  0
 11 12  1  0
 12 13  1  0
 15 13  1  0
 14 15  1  0
 14 17  1  0
 15 19  1  0
 18 16  2  0
 16 17  1  0
 19 18  1  0
 22 18  1  0
 19 20  1  0
 21 20  1  0
 23 21  1  0
 23 22  1  0
 22 26  1  0
 23 24  1  0
 24 25  1  0
 25  2  1  0
  2 26  1  0
  8 27  1  0
 10 28  1  0
 19 29  1  0
 21 30  1  0
 24 31  1  0
 23 32  1  0
 32 33  1  0
 15 34  1  0
  1 35  1  0
  1 36  1  0
  1 37  1  0
  3 38  1  0
  3 39  1  0
  3 40  1  0
  4 41  1  0
  4 42  1  0
  4 43  1  0
  6 44  1  0
  6 45  1  0
  6 46  1  0
  7 47  1  0
  7 48  1  0
  8 49  1  0
  9 50  1  0
  9 51  1  0
 11 52  1  0
 12 53  1  0
 12 54  1  0
 13 55  1  0
 13 56  1  0
 14 57  1  0
 16 58  1  0
 17 59  1  0
 17 60  1  0
 20 61  1  0
 20 62  1  0
 21 63  1  0
 22 64  1  0
 24 65  1  0
 25 66  1  0
 25 67  1  0
 26 68  1  0
 26 69  1  0
 27 70  1  0
 28 71  1  0
 28 72  1  0
 28 73  1  0
 29 74  1  0
 29 75  1  0
 29 76  1  0
 30 77  1  0
 31 78  1  0
 32 79  1  0
 32 80  1  0
 33 81  1  0
 34 82  1  0
 34 83  1  0
 34 84  1  0
M  END
> <Name>
Molecule

> <Clean Energy>
56.7044

> <From>
www.bindingDB.org

> <BindingDB Reactant_set_id>
50986932

> <Ligand InChI>
InChI=1S/C30H50O4/c1-25(2)14-19-18-8-9-21-27(5)12-11-22(32)26(3,4)20(27)10-13-28(21,6)29(18,7)16-24(34)30(19,17-31)23(33)15-25/h8,19-24,31-34H,9-17H2,1-7H3/t19-,20-,21+,22-,23-,24+,27-,28+,29+,30+/m0/
s1

> <Ligand InChI Key>
CTNHZEZBBGIUJB-HRQAAHFGSA-N

> <BindingDB MonomerID>
50279427

> <BindingDB Ligand Name>
CHEMBL4165207

> <Target Name>
Tyrosine-protein phosphatase non-receptor type 1

> <Target Source Organism According to Curator or DataSource>
Homo sapiens

> <IC50 (nM)>
8930

> <Curation/DataSource>
ChEMBL

> <Article DOI>
10.1021/acs.jnatprod.7b00241

> <BindingDB Entry DOI>
10.7270/Q2P271N3

> <PMID>
29064696

> <Authors>
Xiong, J; Wan, J; Ding, J; Wang, PP; Ma, GL; Li, J; Hu, JF

> <Institution>
Fudan University

> <Link to Ligand in BindingDB>
http://www.bindingdb.org/bind/chemsearch/marvin/MolStructure.jsp?monomerid=50279427

> <Link to Ligand-Target Pair in BindingDB>
http://www.bindingdb.org/jsp/dbsearch/PrimarySearch_ki.jsp?energyterm=kJ/mole&tag=pol&polymerid=2622&target=Tyrosine-protein+phosphatase+non-receptor+type+1&column=ki&startPg=0&Increment=50&submit=Sea
rch
http://www.bindingdb.org/jsp/dbsearch/PrimarySearch_ki.jsp?energyterm=kJ/mole&tag=r21&monomerid=50279427&enzyme=Tyrosine-protein+phosphatase+non-receptor+type+1&column=ki&startPg=0&Increment=50&submit
=Search

> <PubChem CID of Ligand>
12302281

> <PubChem SID of Ligand>
406793743

> <Number of Protein Chains in Target (bigger than 1 implies a multichain complex)>
1

> <BindingDB Target Chain Sequence>
MEMEKEFEQIDKSGSWAAIYQDIRHEASDFPCRVAKLPKNKNRNRYRDVSPFDHSRIKLHQEDNDYINASLIKMEEAQRSYILTQGPLPNTCGHFWEMVWEQKSRGVVMLNRVMEKGSLKCAQYWPQKEEKEMIFEDTNLKLTLISEDIKSYYTVRQLELENLTTQETREILHFHYTTWPDFGVPESPASFLNFLFKVRE
SGSLSPEHGPVVVHCSAGIGRSGTFCLADTCLLLMDKRKDPSSVDIKKVLLEMRKFRMGLIQTADQLRFSYLAVIEGAKFIMGDSSVQDQWKELSHEDLEPPPEHIPPPPRPPKRILEPHNGKCREFFPNHQWVKEETQEDKDCPIKEEKGSPLNAAPYGIESMSQDTEVRSRVVGGSLRGAQAASPAKGEPSLPEKDED
HALSYWKPFLVNMCVATVLTAGAYLCYRFLFNSNT

> <PDB ID(s) of Target Chain>
1BZJ,1G7G,1GFY,1JF7,1KAK,1KAV,1LQF,1NL9,1NNY,1NO6,1NZ7,1OEM,1OEO,1OES,1OET,1OEU,1OEV,1ONY,1ONZ,1PH0,1PXH,1PYN,1Q1M,1Q6J,1Q6M,1Q6N,1Q6P,1Q6S,1Q6T,1QXK,1SUG,1T48,1T49,1T4J,1WAX,1XBO,2AZR,2B07,2BGD,2BGE,
2CM2,2CM3,2CM7,2CM8,2CMA,2CMB,2CMC,2CNE,2CNF,2CNG,2CNH,2CNI,2F6T,2F6V,2F6W,2F6Y,2F6Z,2F70,2F71,2FJN,2H4G,2H4K,2HB1,2HNP,2HNQ,2QBP,2QBQ,2QBR,2QBS,2VEU,2VEV,2VEW,2VEX,2VEY,2ZMM,2ZN7,3A5J,3CWE,3D9C,3EAX,
3EB1,3EU0,3I7Z,3I80,3SME,4BJO,4I8N,4QBW,4Y14,5K9V,5K9W,5KA0,5KA1,5T19,6B90,6NTP,6W30,7KEY,7KLX,7LFO,7MN9,7MNA,8DU7,8G65,8G67,8G68,8G69,8G6A,8SKL

> <UniProt (SwissProt) Recommended Name of Target Chain>
Tyrosine-protein phosphatase non-receptor type 1

> <UniProt (SwissProt) Entry Name of Target Chain>
PTN1_HUMAN

> <UniProt (SwissProt) Primary ID of Target Chain>
P18031

> <UniProt (SwissProt) Secondary ID(s) of Target Chain>
Q5TGD8 Q9BQV9 Q9NQQ4

$$$$
Molecule
  SciTegic10242319433D

 53 57  0  0  0  0            999 V2000
    3.8342   -2.6868    0.0000 C   0  0
    4.4212   -3.9167   -0.0001 O   0  0
    5.7110   -3.7507    0.0000 N   0  0
    5.9426   -2.5017    0.0001 C   0  0
    4.7322   -1.7835    0.0001 N   0  0
    7.3069   -1.9264    0.0001 C   0  0
    8.7210   -2.8252    0.0001 S   0  0
    9.8150   -1.5632    0.0002 C   0  0
    9.1442   -0.4015    0.0002 C   0  0
    7.6152   -0.6222    0.0002 C   0  0
   11.2886   -1.7064    0.0001 C   0  0
   11.8402   -2.9195    0.0001 C   0  0
   13.3027   -3.0662    0.0000 C   0  0
   14.0873   -1.9890    0.0000 C   0  0
   13.4817   -0.6488    0.0001 C   0  0
   12.1530   -0.5152    0.0001 C   0  0
   15.5916   -2.1642   -0.0001 C   0  0
   16.3198   -0.8022   -0.0003 C   0  0
   17.8453   -1.0461   -0.0005 C   0  0
   18.5922    0.3014   -0.0008 C   0  0
    2.3116   -2.5069    0.0000 C   0  0
    1.7738   -1.0843   -0.0001 C   0  0
    2.4787    0.0582   -0.0002 C   0  0
    1.5455    1.1723   -0.0003 N   0  0
    0.2628    0.6206   -0.0001 C   0  0
   -0.9086    1.2461   -0.0001 C   0  0
   -2.1271    0.4007    0.0001 C   0  0
   -2.0162   -0.9368    0.0002 C   0  0
   -0.6763   -1.5687    0.0001 C   0  0
    0.3738   -0.7557    0.0000 C   0  0
    9.6202    0.5791    0.0003 H   0  0
    6.8794    0.1820    0.0002 H   0  0
   11.2051   -3.8054    0.0001 H   0  0
   13.7477   -4.0612    0.0000 H   0  0
   14.1179    0.2362    0.0000 H   0  0
   11.7072    0.4795    0.0001 H   0  0
   15.8833   -2.7215    0.8901 H   0  0
   15.8831   -2.7217   -0.8902 H   0  0
   16.0401   -0.2388   -0.8905 H   0  0
   16.0403   -0.2386    0.8898 H   0  0
   18.1207   -1.6116    0.8897 H   0  0
   18.1205   -1.6118   -0.8906 H   0  0
   19.6672    0.1215   -0.0009 H   0  0
   18.3195    0.8688    0.8890 H   0  0
   18.3192    0.8686   -0.8907 H   0  0
    1.9242   -3.0026   -0.8901 H   0  0
    1.9242   -3.0025    0.8901 H   0  0
    3.5659    0.1369   -0.0003 H   0  0
    1.7932    2.2132   -0.0004 H   0  0
   -0.9718    2.3343   -0.0002 H   0  0
   -3.1129    0.8657    0.0001 H   0  0
   -2.9119   -1.5580    0.0003 H   0  0
   -0.5576   -2.6522    0.0002 H   0  0
  1  2  1  0
  2  3  1  0
  3  4  2  0
  4  5  1  0
  5  1  2  0
  4  6  1  0
  6  7  1  0
  7  8  1  0
  8  9  2  0
  9 10  1  0
 10  6  2  0
  8 11  1  0
 11 12  2  0
 12 13  1  0
 13 14  2  0
 14 15  1  0
 15 16  2  0
 16 11  1  0
 14 17  1  0
 17 18  1  0
 18 19  1  0
 19 20  1  0
 21  1  1  0
 22 21  1  0
 23 22  2  0
 24 23  1  0
 25 24  1  0
 26 25  2  0
 27 26  1  0
 28 27  2  0
 29 28  1  0
 30 29  2  0
 30 25  1  0
 22 30  1  0
  9 31  1  0
 10 32  1  0
 12 33  1  0
 13 34  1  0
 15 35  1  0
 16 36  1  0
 17 37  1  0
 17 38  1  0
 18 39  1  0
 18 40  1  0
 19 41  1  0
 19 42  1  0
 20 43  1  0
 20 44  1  0
 20 45  1  0
 21 46  1  0
 21 47  1  0
 23 48  1  0
 24 49  1  0
 26 50  1  0
 27 51  1  0
 28 52  1  0
 29 53  1  0
M  END
> <Name>
Molecule

> <Clean Energy>
59.1267

> <From>
www.bindingDB.org

> <BindingDB Reactant_set_id>
50461797

> <Ligand InChI>
InChI=1S/C25H23N3OS/c1-2-3-6-17-9-11-18(12-10-17)22-13-14-23(30-22)25-27-24(29-28-25)15-19-16-26-21-8-5-4-7-20(19)21/h4-5,7-14,16,26H,2-3,6,15H2,1H3

> <Ligand InChI Key>
DWEBGRFLJHYEAN-UHFFFAOYSA-N

> <BindingDB MonomerID>
50142976

> <BindingDB Ligand Name>
CHEMBL3758490

> <Target Name>
Tyrosine-protein phosphatase non-receptor type 1

> <Target Source Organism According to Curator or DataSource>
Homo sapiens

> <IC50 (nM)>
8960

> <Curation/DataSource>
ChEMBL

> <Article DOI>
10.1016/j.bmcl.2015.12.097

> <BindingDB Entry DOI>
10.7270/Q2K939CS

> <PMID>
26774579

> <Authors>
Zhang, L; Jiang, CS; Gao, LX; Gong, JX; Wang, ZH; Li, JY; Li, J; Li, XW; Guo, YW

> <Institution>
Shanghai Institute of Materia Medica

> <Link to Ligand in BindingDB>
http://www.bindingdb.org/bind/chemsearch/marvin/MolStructure.jsp?monomerid=50142976

> <Link to Ligand-Target Pair in BindingDB>
http://www.bindingdb.org/jsp/dbsearch/PrimarySearch_ki.jsp?energyterm=kJ/mole&tag=pol&polymerid=2622&target=Tyrosine-protein+phosphatase+non-receptor+type+1&column=ki&startPg=0&Increment=50&submit=Sea
rch
http://www.bindingdb.org/jsp/dbsearch/PrimarySearch_ki.jsp?energyterm=kJ/mole&tag=r21&monomerid=50142976&enzyme=Tyrosine-protein+phosphatase+non-receptor+type+1&column=ki&startPg=0&Increment=50&submit
=Search

> <PubChem CID of Ligand>
127025575

> <PubChem SID of Ligand>
104032266

> <ChEMBL ID of Ligand>
CHEMBL3758490

> <ZINC ID of Ligand>
ZINC29399095

> <Number of Protein Chains in Target (bigger than 1 implies a multichain complex)>
1

> <BindingDB Target Chain Sequence>
MEMEKEFEQIDKSGSWAAIYQDIRHEASDFPCRVAKLPKNKNRNRYRDVSPFDHSRIKLHQEDNDYINASLIKMEEAQRSYILTQGPLPNTCGHFWEMVWEQKSRGVVMLNRVMEKGSLKCAQYWPQKEEKEMIFEDTNLKLTLISEDIKSYYTVRQLELENLTTQETREILHFHYTTWPDFGVPESPASFLNFLFKVRE
SGSLSPEHGPVVVHCSAGIGRSGTFCLADTCLLLMDKRKDPSSVDIKKVLLEMRKFRMGLIQTADQLRFSYLAVIEGAKFIMGDSSVQDQWKELSHEDLEPPPEHIPPPPRPPKRILEPHNGKCREFFPNHQWVKEETQEDKDCPIKEEKGSPLNAAPYGIESMSQDTEVRSRVVGGSLRGAQAASPAKGEPSLPEKDED
HALSYWKPFLVNMCVATVLTAGAYLCYRFLFNSNT

> <PDB ID(s) of Target Chain>
1BZJ,1G7G,1GFY,1JF7,1KAK,1KAV,1LQF,1NL9,1NNY,1NO6,1NZ7,1OEM,1OEO,1OES,1OET,1OEU,1OEV,1ONY,1ONZ,1PH0,1PXH,1PYN,1Q1M,1Q6J,1Q6M,1Q6N,1Q6P,1Q6S,1Q6T,1QXK,1SUG,1T48,1T49,1T4J,1WAX,1XBO,2AZR,2B07,2BGD,2BGE,
2CM2,2CM3,2CM7,2CM8,2CMA,2CMB,2CMC,2CNE,2CNF,2CNG,2CNH,2CNI,2F6T,2F6V,2F6W,2F6Y,2F6Z,2F70,2F71,2FJN,2H4G,2H4K,2HB1,2HNP,2HNQ,2QBP,2QBQ,2QBR,2QBS,2VEU,2VEV,2VEW,2VEX,2VEY,2ZMM,2ZN7,3A5J,3CWE,3D9C,3EAX,
3EB1,3EU0,3I7Z,3I80,3SME,4BJO,4I8N,4QBW,4Y14,5K9V,5K9W,5KA0,5KA1,5T19,6B90,6NTP,6W30,7KEY,7KLX,7LFO,7MN9,7MNA,8DU7,8G65,8G67,8G68,8G69,8G6A,8SKL

> <UniProt (SwissProt) Recommended Name of Target Chain>
Tyrosine-protein phosphatase non-receptor type 1

> <UniProt (SwissProt) Entry Name of Target Chain>
PTN1_HUMAN

> <UniProt (SwissProt) Primary ID of Target Chain>
P18031

> <UniProt (SwissProt) Secondary ID(s) of Target Chain>
Q5TGD8 Q9BQV9 Q9NQQ4

$$$$
Molecule
  SciTegic10242319433D

 45 48  0  0  0  0            999 V2000
   -1.8624  -23.6466    0.0000 C   0  0
   -1.9515  -24.9796   -0.0001 C   0  0
   -0.7001  -25.7843   -0.0001 C   0  0
    0.4726  -25.1625    0.0000 C   0  0
    0.5687  -23.7111    0.0001 C   0  0
   -0.5486  -22.9855    0.0000 C   0  0
    1.8893  -23.0237    0.0001 C   0  0
    3.0748  -23.6534    0.0002 C   0  0
    3.3767  -25.2937    0.0002 S   0  0
    5.0418  -25.2064    0.0003 C   0  0
    5.4562  -23.8349    0.0003 N   0  0
    4.3928  -22.9766    0.0002 C   0  0
    4.5196  -21.7473    0.0002 O   0  0
    5.8026  -26.1807    0.0004 O   0  0
   -3.2120  -25.6070   -0.0002 O   0  0
   -4.2948  -24.6701   -0.0002 C   0  0
   -5.5839  -25.4371   -0.0003 C   0  0
   -6.7484  -24.7908   -0.0003 C   0  0
   -8.0049  -25.5467   -0.0004 C   0  0
   -7.9818  -26.8790   -0.0005 C   0  0
   -6.7001  -27.5895   -0.0005 C   0  0
   -5.5588  -26.9030   -0.0004 C   0  0
   -0.6841  -27.2665   -0.0001 C   0  0
   -1.8035  -27.9889   -0.0002 C   0  0
   -1.7397  -29.4509   -0.0003 C   0  0
   -0.5592  -30.0668   -0.0002 C   0  0
    0.6739  -29.2807   -0.0001 C   0  0
    0.6145  -27.9509    0.0000 C   0  0
   -2.7707  -23.0441    0.0000 H   0  0
    1.3876  -25.7550    0.0000 H   0  0
   -0.4887  -21.8971    0.0001 H   0  0
    1.8939  -21.9337    0.0001 H   0  0
    6.4787  -23.5196    0.0003 H   0  0
   -4.2393  -24.0435    0.8900 H   0  0
   -4.2392  -24.0434   -0.8903 H   0  0
   -6.7674  -23.7009   -0.0002 H   0  0
   -8.9584  -25.0185   -0.0004 H   0  0
   -8.9161  -27.4403   -0.0006 H   0  0
   -6.6809  -28.6793   -0.0005 H   0  0
   -4.6054  -27.4314   -0.0004 H   0  0
   -2.7718  -27.4884   -0.0003 H   0  0
   -2.6593  -30.0361   -0.0004 H   0  0
   -0.5120  -31.1558   -0.0003 H   0  0
    1.6411  -29.7834    0.0000 H   0  0
    1.5349  -27.3671    0.0000 H   0  0
  1  2  2  0
 10 14  2  0
  7  5  1  0
  2 15  1  0
  3  4  2  0
 15 16  1  0
  7  8  2  0
 16 17  1  0
  8  9  1  0
 17 18  2  0
 18 19  1  0
  4  5  1  0
 19 20  2  0
  2  3  1  0
 20 21  1  0
  5  6  2  0
 21 22  2  0
 22 17  1  0
  9 10  1  0
  3 23  1  0
 10 11  1  0
 23 24  2  0
 11 12  1  0
 24 25  1  0
 12  8  1  0
 25 26  2  0
  6  1  1  0
 26 27  1  0
 12 13  2  0
 27 28  2  0
 28 23  1  0
  1 29  1  0
  4 30  1  0
  6 31  1  0
  7 32  1  0
 11 33  1  0
 16 34  1  0
 16 35  1  0
 18 36  1  0
 19 37  1  0
 20 38  1  0
 21 39  1  0
 22 40  1  0
 24 41  1  0
 25 42  1  0
 26 43  1  0
 27 44  1  0
 28 45  1  0
M  END
> <Name>
Molecule

> <Clean Energy>
21.6341

> <From>
www.bindingDB.org

> <BindingDB Reactant_set_id>
50532137

> <Ligand InChI>
InChI=1S/C23H17NO3S/c25-22-21(28-23(26)24-22)14-17-11-12-20(27-15-16-7-3-1-4-8-16)19(13-17)18-9-5-2-6-10-18/h1-14H,15H2,(H,24,25,26)

> <Ligand InChI Key>
WLIHXGHRKYIGRZ-UHFFFAOYSA-N

> <BindingDB MonomerID>
50299163

> <BindingDB Ligand Name>
(Z)-5-[(4-Benzyloxy-3-phenyl)benzylidene]thiazolidine-2,4-dione::CHEMBL574377

> <Target Name>
Tyrosine-protein phosphatase non-receptor type 1

> <Target Source Organism According to Curator or DataSource>
Homo sapiens

> <IC50 (nM)>
9000

> <Curation/DataSource>
ChEMBL

> <Article DOI>
10.1016/j.bmcl.2009.09.020

> <BindingDB Entry DOI>
10.7270/Q20P102S

> <PMID>
19783142

> <Authors>
Bhattarai, BR; Kafle, B; Hwang, JS; Khadka, D; Lee, SM; Kang, JS; Ham, SW; Han, IO; Park, H; Cho, H

> <Institution>
Inha University

> <Link to Ligand in BindingDB>
http://www.bindingdb.org/bind/chemsearch/marvin/MolStructure.jsp?monomerid=50299163

> <Link to Ligand-Target Pair in BindingDB>
http://www.bindingdb.org/jsp/dbsearch/PrimarySearch_ki.jsp?energyterm=kJ/mole&tag=pol&polymerid=2622&target=Tyrosine-protein+phosphatase+non-receptor+type+1&column=ki&startPg=0&Increment=50&submit=Sea
rch
http://www.bindingdb.org/jsp/dbsearch/PrimarySearch_ki.jsp?energyterm=kJ/mole&tag=r21&monomerid=50299163&enzyme=Tyrosine-protein+phosphatase+non-receptor+type+1&column=ki&startPg=0&Increment=50&submit
=Search

> <PubChem CID of Ligand>
45482842

> <PubChem SID of Ligand>
104140692

> <ChEMBL ID of Ligand>
CHEMBL574377

> <ZINC ID of Ligand>
ZINC45286161

> <Number of Protein Chains in Target (bigger than 1 implies a multichain complex)>
1

> <BindingDB Target Chain Sequence>
MEMEKEFEQIDKSGSWAAIYQDIRHEASDFPCRVAKLPKNKNRNRYRDVSPFDHSRIKLHQEDNDYINASLIKMEEAQRSYILTQGPLPNTCGHFWEMVWEQKSRGVVMLNRVMEKGSLKCAQYWPQKEEKEMIFEDTNLKLTLISEDIKSYYTVRQLELENLTTQETREILHFHYTTWPDFGVPESPASFLNFLFKVRE
SGSLSPEHGPVVVHCSAGIGRSGTFCLADTCLLLMDKRKDPSSVDIKKVLLEMRKFRMGLIQTADQLRFSYLAVIEGAKFIMGDSSVQDQWKELSHEDLEPPPEHIPPPPRPPKRILEPHNGKCREFFPNHQWVKEETQEDKDCPIKEEKGSPLNAAPYGIESMSQDTEVRSRVVGGSLRGAQAASPAKGEPSLPEKDED
HALSYWKPFLVNMCVATVLTAGAYLCYRFLFNSNT

> <PDB ID(s) of Target Chain>
1BZJ,1G7G,1GFY,1JF7,1KAK,1KAV,1LQF,1NL9,1NNY,1NO6,1NZ7,1OEM,1OEO,1OES,1OET,1OEU,1OEV,1ONY,1ONZ,1PH0,1PXH,1PYN,1Q1M,1Q6J,1Q6M,1Q6N,1Q6P,1Q6S,1Q6T,1QXK,1SUG,1T48,1T49,1T4J,1WAX,1XBO,2AZR,2B07,2BGD,2BGE,
2CM2,2CM3,2CM7,2CM8,2CMA,2CMB,2CMC,2CNE,2CNF,2CNG,2CNH,2CNI,2F6T,2F6V,2F6W,2F6Y,2F6Z,2F70,2F71,2FJN,2H4G,2H4K,2HB1,2HNP,2HNQ,2QBP,2QBQ,2QBR,2QBS,2VEU,2VEV,2VEW,2VEX,2VEY,2ZMM,2ZN7,3A5J,3CWE,3D9C,3EAX,
3EB1,3EU0,3I7Z,3I80,3SME,4BJO,4I8N,4QBW,4Y14,5K9V,5K9W,5KA0,5KA1,5T19,6B90,6NTP,6W30,7KEY,7KLX,7LFO,7MN9,7MNA,8DU7,8G65,8G67,8G68,8G69,8G6A,8SKL

> <UniProt (SwissProt) Recommended Name of Target Chain>
Tyrosine-protein phosphatase non-receptor type 1

> <UniProt (SwissProt) Entry Name of Target Chain>
PTN1_HUMAN

> <UniProt (SwissProt) Primary ID of Target Chain>
P18031

> <UniProt (SwissProt) Secondary ID(s) of Target Chain>
Q5TGD8 Q9BQV9 Q9NQQ4

$$$$
Molecule
  SciTegic10242319433D

 66 70  0  0  0  0            999 V2000
   10.3633  -10.7364    0.0847 C   0  0
    8.9472  -11.3786   -0.1923 C   0  0  1  0  0  0
   11.6249  -11.5508   -0.0155 N   0  0
   13.3162  -13.7341   -0.0647 S   0  0
   11.7944  -12.9766   -0.0651 C   0  0
   10.8571  -13.8554   -0.0860 N   0  0
   11.3418  -15.2265   -0.0982 C   0  0
   12.7867  -15.3036   -0.0762 C   0  0
   10.6020  -16.2140   -0.1066 O   0  0
   13.4887  -16.4448   -0.0630 C   0  0
   14.9632  -16.5397   -0.0407 C   0  0
   15.5209  -17.7507   -0.0145 C   0  0
   16.9764  -17.8937    0.0020 C   0  0
   17.7514  -16.8119   -0.0106 C   0  0
   17.1467  -15.4800   -0.0388 C   0  0
   15.8219  -15.3512   -0.0526 C   0  0
   19.1347  -16.9474    0.0025 O   0  0
    5.3886   -9.7336   -0.1558 C   0  0
    4.1177  -10.3766   -0.3042 N   0  0
    1.4136  -10.4568   -0.1854 S   0  0
    2.9121   -9.6869   -0.1847 C   0  0
    2.7906   -8.4097   -0.0580 N   0  0
    1.3845   -7.9928    0.0424 C   0  0
    0.4611   -9.1246   -0.0128 C   0  0
    1.0225   -6.8175    0.1670 O   0  0
   -0.8748   -9.0550    0.0651 C   0  0
   -1.7872  -10.2339    0.0197 C   0  0
   -3.1040  -10.0314    0.0595 C   0  0
   -4.0298  -11.1697    0.0271 C   0  0
   -3.5575  -12.4132   -0.0381 C   0  0
   -2.1166  -12.6435   -0.0802 C   0  0
   -1.2774  -11.6110   -0.0537 C   0  0
   -4.4345  -13.4925   -0.0662 O   0  0
    6.4588  -10.8257   -0.3438 C   0  0  2  0  0  0
    6.1513  -11.9548    0.6500 C   0  0
    7.1994  -13.0591    0.5187 C   0  0
    8.5747  -12.4630    0.8512 C   0  0
    7.8754  -10.2508   -0.0786 C   0  0
   10.4714   -9.9126   -0.6208 H   0  0
   10.3301  -10.3433    1.1008 H   0  0
    8.9262  -11.8078   -1.1940 H   0  0
   12.5310  -10.9831   -0.0559 H   0  0
   12.9267  -17.3788   -0.0694 H   0  0
   14.8888  -18.6386   -0.0053 H   0  0
   17.4263  -18.8863    0.0246 H   0  0
   17.7808  -14.5935   -0.0485 H   0  0
   15.3735  -14.3579   -0.0728 H   0  0
   19.4285  -17.4592    0.8710 H   0  0
    5.5074   -8.9568   -0.9111 H   0  0
    5.4727   -9.2917    0.8370 H   0  0
    4.0924  -11.4254   -0.5146 H   0  0
   -1.3261   -8.0682    0.1689 H   0  0
   -3.4951   -9.0155    0.1163 H   0  0
   -5.1057  -10.9971    0.0566 H   0  0
   -1.7283  -13.6606   -0.1333 H   0  0
   -0.2024  -11.7878   -0.0868 H   0  0
   -5.0204  -13.4908    0.8052 H   0  0
    6.4082  -11.2131   -1.3614 H   0  0
    6.1689  -11.5581    1.6651 H   0  0
    5.1643  -12.3655    0.4369 H   0  0
    6.9711  -13.8678    1.2130 H   0  0
    7.2020  -13.4447   -0.5008 H   0  0
    8.5430  -12.0134    1.8437 H   0  0
    9.3247  -13.2537    0.8337 H   0  0
    8.0915   -9.4744   -0.8125 H   0  0
    7.9082   -9.8234    0.9235 H   0  0
  1  2  1  0
  1  3  1  0
  4  5  1  0
  5  6  2  0
  6  7  1  0
  7  8  1  0
  4  8  1  0
  7  9  2  0
 10 11  1  0
 11 12  2  0
 12 13  1  0
 13 14  2  0
 14 15  1  0
 15 16  2  0
 11 16  1  0
 14 17  1  0
  8 10  2  0
  3  5  1  0
 18 19  1  0
 20 21  1  0
 21 22  2  0
 22 23  1  0
 23 24  1  0
 20 24  1  0
 23 25  2  0
 26 27  1  0
 27 28  2  0
 28 29  1  0
 29 30  2  0
 30 31  1  0
 31 32  2  0
 27 32  1  0
 30 33  1  0
 24 26  2  0
 19 21  1  0
 18 34  1  0
 34 35  1  0
 34 38  1  0
 35 36  1  0
 36 37  1  0
 37  2  1  0
  2 38  1  0
  1 39  1  0
  1 40  1  0
  2 41  1  0
  3 42  1  0
 10 43  1  0
 12 44  1  0
 13 45  1  0
 15 46  1  0
 16 47  1  0
 17 48  1  0
 18 49  1  0
 18 50  1  0
 19 51  1  0
 26 52  1  0
 28 53  1  0
 29 54  1  0
 31 55  1  0
 32 56  1  0
 33 57  1  0
 34 58  1  0
 35 59  1  0
 35 60  1  0
 36 61  1  0
 36 62  1  0
 37 63  1  0
 37 64  1  0
 38 65  1  0
 38 66  1  0
M  END
> <Name>
Molecule

> <Clean Energy>
54.8865

> <From>
www.bindingDB.org

> <BindingDB Reactant_set_id>
50981964

> <Ligand InChI>
InChI=1S/C28H28N4O4S2/c33-21-8-4-17(5-9-21)13-23-25(35)31-27(37-23)29-15-19-2-1-3-20(12-19)16-30-28-32-26(36)24(38-28)14-18-6-10-22(34)11-7-18/h4-11,13-14,19-20,33-34H,1-3,12,15-16H2,(H,29,31,35)(H,30
,32,36)

> <Ligand InChI Key>
DDOKSPNPLVFUTL-UHFFFAOYSA-N

> <BindingDB MonomerID>
50402656

> <BindingDB Ligand Name>
CHEMBL2207335

> <Target Name>
Tyrosine-protein phosphatase non-receptor type 1

> <Target Source Organism According to Curator or DataSource>
Homo sapiens

> <IC50 (nM)>
9000

> <Curation/DataSource>
ChEMBL

> <Article DOI>
10.1016/j.bmcl.2012.10.072

> <BindingDB Entry DOI>
10.7270/Q2J67J38

> <PMID>
23141909

> <Authors>
Sarkis, M; Tran, DN; Kolb, S; Miteva, MA; Villoutreix, BO; Garbay, C; Braud, E

> <Institution>
University of Paris

> <Link to Ligand in BindingDB>
http://www.bindingdb.org/bind/chemsearch/marvin/MolStructure.jsp?monomerid=50402656

> <Link to Ligand-Target Pair in BindingDB>
http://www.bindingdb.org/jsp/dbsearch/PrimarySearch_ki.jsp?energyterm=kJ/mole&tag=pol&polymerid=2622&target=Tyrosine-protein+phosphatase+non-receptor+type+1&column=ki&startPg=0&Increment=50&submit=Sea
rch
http://www.bindingdb.org/jsp/dbsearch/PrimarySearch_ki.jsp?energyterm=kJ/mole&tag=r21&monomerid=50402656&enzyme=Tyrosine-protein+phosphatase+non-receptor+type+1&column=ki&startPg=0&Increment=50&submit
=Search

> <PubChem CID of Ligand>
71457829

> <PubChem SID of Ligand>
163351680

> <ChEMBL ID of Ligand>
CHEMBL2207335

> <ZINC ID of Ligand>
ZINC95563828

> <Number of Protein Chains in Target (bigger than 1 implies a multichain complex)>
1

> <BindingDB Target Chain Sequence>
MEMEKEFEQIDKSGSWAAIYQDIRHEASDFPCRVAKLPKNKNRNRYRDVSPFDHSRIKLHQEDNDYINASLIKMEEAQRSYILTQGPLPNTCGHFWEMVWEQKSRGVVMLNRVMEKGSLKCAQYWPQKEEKEMIFEDTNLKLTLISEDIKSYYTVRQLELENLTTQETREILHFHYTTWPDFGVPESPASFLNFLFKVRE
SGSLSPEHGPVVVHCSAGIGRSGTFCLADTCLLLMDKRKDPSSVDIKKVLLEMRKFRMGLIQTADQLRFSYLAVIEGAKFIMGDSSVQDQWKELSHEDLEPPPEHIPPPPRPPKRILEPHNGKCREFFPNHQWVKEETQEDKDCPIKEEKGSPLNAAPYGIESMSQDTEVRSRVVGGSLRGAQAASPAKGEPSLPEKDED
HALSYWKPFLVNMCVATVLTAGAYLCYRFLFNSNT

> <PDB ID(s) of Target Chain>
1BZJ,1G7G,1GFY,1JF7,1KAK,1KAV,1LQF,1NL9,1NNY,1NO6,1NZ7,1OEM,1OEO,1OES,1OET,1OEU,1OEV,1ONY,1ONZ,1PH0,1PXH,1PYN,1Q1M,1Q6J,1Q6M,1Q6N,1Q6P,1Q6S,1Q6T,1QXK,1SUG,1T48,1T49,1T4J,1WAX,1XBO,2AZR,2B07,2BGD,2BGE,
2CM2,2CM3,2CM7,2CM8,2CMA,2CMB,2CMC,2CNE,2CNF,2CNG,2CNH,2CNI,2F6T,2F6V,2F6W,2F6Y,2F6Z,2F70,2F71,2FJN,2H4G,2H4K,2HB1,2HNP,2HNQ,2QBP,2QBQ,2QBR,2QBS,2VEU,2VEV,2VEW,2VEX,2VEY,2ZMM,2ZN7,3A5J,3CWE,3D9C,3EAX,
3EB1,3EU0,3I7Z,3I80,3SME,4BJO,4I8N,4QBW,4Y14,5K9V,5K9W,5KA0,5KA1,5T19,6B90,6NTP,6W30,7KEY,7KLX,7LFO,7MN9,7MNA,8DU7,8G65,8G67,8G68,8G69,8G6A,8SKL

> <UniProt (SwissProt) Recommended Name of Target Chain>
Tyrosine-protein phosphatase non-receptor type 1

> <UniProt (SwissProt) Entry Name of Target Chain>
PTN1_HUMAN

> <UniProt (SwissProt) Primary ID of Target Chain>
P18031

> <UniProt (SwissProt) Secondary ID(s) of Target Chain>
Q5TGD8 Q9BQV9 Q9NQQ4

$$$$
Molecule
  SciTegic10242319433D

 55 58  0  0  0  0            999 V2000
    7.7551    1.0039   -0.0183 C   0  0
    7.6664   -0.4936   -0.0222 C   0  0
    8.7815   -1.2144   -0.0245 C   0  0
   10.0896   -0.5893   -0.0235 C   0  0
   10.2432    0.7335   -0.0211 C   0  0
    8.9443    1.6385   -0.0184 C   0  0
    8.8943    3.1509   -0.0142 O   0  0
    6.4241   -1.2115   -0.0231 O   0  0
   10.1666    3.8494   -0.0288 C   0  0
   10.1816    5.3563    0.0176 C   0  0
   11.3716    5.9577   -0.0090 C   0  0
   11.4775    7.4080    0.0362 C   0  0
   10.3771    8.1482    0.1064 C   0  0
    9.0529    7.4951    0.1370 C   0  0
    8.9592    6.1615    0.0943 C   0  0
    5.2435   -0.3906   -0.0246 C   0  0
    3.9891   -1.2814   -0.0067 C   0  0
    2.6524   -0.6676   -0.0172 C   0  0
    1.5559   -1.4289    0.0008 C   0  0
    1.6677   -2.8897    0.0317 C   0  0
    2.8752   -3.4574    0.0407 C   0  0
    4.0942   -2.6134    0.0204 C   0  0
   11.6588    1.2639   -0.0172 C   0  0
   12.8001    0.5719   -0.0116 C   0  0
   13.0501   -1.0618   -0.0070 S   0  0
   14.7465   -1.0259    0.0005 C   0  0
   15.1971    0.1820   -0.0003 N   0  0
   14.1292    1.1731   -0.0073 C   0  0
   14.3264    2.3954   -0.0089 O   0  0
   15.5539   -2.1569    0.0067 O   0  0
    0.4141   -3.7410    0.0549 C   0  0
   -0.6179   -3.0556    0.6660 F   0  0
    0.6588   -4.9564    0.6623 F   0  0
    0.0355   -3.9869   -1.2496 F   0  0
   10.4976    9.6454    0.1538 C   0  0
   11.7928   10.0205    0.4583 F   0  0
    9.5891   10.1587    1.0537 F   0  0
   10.1637   10.1435   -1.0878 F   0  0
    6.8374    1.5920   -0.0155 H   0  0
    8.7118   -2.3021   -0.0273 H   0  0
   10.9765   -1.2229   -0.0247 H   0  0
   10.7315    3.4992    0.8351 H   0  0
   10.6807    3.5545   -0.9436 H   0  0
   12.2776    5.3543   -0.0654 H   0  0
   12.4570    7.8856    0.0125 H   0  0
    8.1491    8.1017    0.1945 H   0  0
    7.9826    5.6779    0.1163 H   0  0
    5.2461    0.2483    0.8586 H   0  0
    5.2347    0.2287   -0.9215 H   0  0
    2.5563    0.4179   -0.0398 H   0  0
    0.5715   -0.9610   -0.0075 H   0  0
    2.9657   -4.5434    0.0630 H   0  0
    5.0789   -3.0808    0.0277 H   0  0
   11.7603    2.3491   -0.0191 H   0  0
   15.3510   -2.7277    0.8644 H   0  0
  7  9  1  0
 18 19  2  0
  4  5  2  0
 19 20  1  0
  9 10  1  0
 20 21  2  0
  2  3  2  0
 21 22  1  0
 22 17  2  0
 10 11  2  0
 23  5  1  0
  5  6  1  0
 23 24  2  0
 24 25  1  0
 11 12  1  0
  6  1  2  0
 12 13  2  0
  1  2  1  0
 25 26  1  0
 26 27  2  0
 27 28  1  0
 28 24  1  0
 13 14  1  0
 28 29  2  0
  6  7  1  0
 26 30  1  0
 14 15  2  0
 20 31  1  0
 15 10  1  0
 31 32  1  0
  3  4  1  0
 31 33  1  0
  8 16  1  0
 31 34  1  0
  2  8  1  0
 13 35  1  0
 16 17  1  0
 35 36  1  0
 35 37  1  0
 17 18  1  0
 35 38  1  0
  1 39  1  0
  3 40  1  0
  4 41  1  0
  9 42  1  0
  9 43  1  0
 11 44  1  0
 12 45  1  0
 14 46  1  0
 15 47  1  0
 16 48  1  0
 16 49  1  0
 18 50  1  0
 19 51  1  0
 21 52  1  0
 22 53  1  0
 23 54  1  0
 30 55  1  0
M  END
> <Name>
Molecule

> <Clean Energy>
60.2785

> <From>
www.bindingDB.org

> <BindingDB Reactant_set_id>
50650290

> <Ligand InChI>
InChI=1S/C26H17F6NO4S/c27-25(28,29)18-6-1-15(2-7-18)13-36-20-10-5-17(11-22-23(34)33-24(35)38-22)21(12-20)37-14-16-3-8-19(9-4-16)26(30,31)32/h1-12H,13-14H2,(H,33,34,35)

> <Ligand InChI Key>
AWAZCQMIVAGXDM-UHFFFAOYSA-N

> <BindingDB MonomerID>
50348689

> <BindingDB Ligand Name>
CHEMBL1801401

> <Target Name>
Tyrosine-protein phosphatase non-receptor type 1

> <Target Source Organism According to Curator or DataSource>
Homo sapiens

> <IC50 (nM)>
9000

> <Curation/DataSource>
ChEMBL

> <Article DOI>
10.1016/j.bmcl.2010.08.130

> <BindingDB Entry DOI>
10.7270/Q2FQ9X0G

> <PMID>
20850970

> <Authors>
Bhattarai, BR; Kafle, B; Hwang, JS; Ham, SW; Lee, KH; Park, H; Han, IO; Cho, H

> <Institution>
Inha University

> <Link to Ligand in BindingDB>
http://www.bindingdb.org/bind/chemsearch/marvin/MolStructure.jsp?monomerid=50348689

> <Link to Ligand-Target Pair in BindingDB>
http://www.bindingdb.org/jsp/dbsearch/PrimarySearch_ki.jsp?energyterm=kJ/mole&tag=pol&polymerid=2622&target=Tyrosine-protein+phosphatase+non-receptor+type+1&column=ki&startPg=0&Increment=50&submit=Sea
rch
http://www.bindingdb.org/jsp/dbsearch/PrimarySearch_ki.jsp?energyterm=kJ/mole&tag=r21&monomerid=50348689&enzyme=Tyrosine-protein+phosphatase+non-receptor+type+1&column=ki&startPg=0&Increment=50&submit
=Search

> <PubChem CID of Ligand>
56679982

> <PubChem SID of Ligand>
136355375

> <ChEMBL ID of Ligand>
CHEMBL1801401

> <ZINC ID of Ligand>
ZINC72109966

> <Number of Protein Chains in Target (bigger than 1 implies a multichain complex)>
1

> <BindingDB Target Chain Sequence>
MEMEKEFEQIDKSGSWAAIYQDIRHEASDFPCRVAKLPKNKNRNRYRDVSPFDHSRIKLHQEDNDYINASLIKMEEAQRSYILTQGPLPNTCGHFWEMVWEQKSRGVVMLNRVMEKGSLKCAQYWPQKEEKEMIFEDTNLKLTLISEDIKSYYTVRQLELENLTTQETREILHFHYTTWPDFGVPESPASFLNFLFKVRE
SGSLSPEHGPVVVHCSAGIGRSGTFCLADTCLLLMDKRKDPSSVDIKKVLLEMRKFRMGLIQTADQLRFSYLAVIEGAKFIMGDSSVQDQWKELSHEDLEPPPEHIPPPPRPPKRILEPHNGKCREFFPNHQWVKEETQEDKDCPIKEEKGSPLNAAPYGIESMSQDTEVRSRVVGGSLRGAQAASPAKGEPSLPEKDED
HALSYWKPFLVNMCVATVLTAGAYLCYRFLFNSNT

> <PDB ID(s) of Target Chain>
1BZJ,1G7G,1GFY,1JF7,1KAK,1KAV,1LQF,1NL9,1NNY,1NO6,1NZ7,1OEM,1OEO,1OES,1OET,1OEU,1OEV,1ONY,1ONZ,1PH0,1PXH,1PYN,1Q1M,1Q6J,1Q6M,1Q6N,1Q6P,1Q6S,1Q6T,1QXK,1SUG,1T48,1T49,1T4J,1WAX,1XBO,2AZR,2B07,2BGD,2BGE,
2CM2,2CM3,2CM7,2CM8,2CMA,2CMB,2CMC,2CNE,2CNF,2CNG,2CNH,2CNI,2F6T,2F6V,2F6W,2F6Y,2F6Z,2F70,2F71,2FJN,2H4G,2H4K,2HB1,2HNP,2HNQ,2QBP,2QBQ,2QBR,2QBS,2VEU,2VEV,2VEW,2VEX,2VEY,2ZMM,2ZN7,3A5J,3CWE,3D9C,3EAX,
3EB1,3EU0,3I7Z,3I80,3SME,4BJO,4I8N,4QBW,4Y14,5K9V,5K9W,5KA0,5KA1,5T19,6B90,6NTP,6W30,7KEY,7KLX,7LFO,7MN9,7MNA,8DU7,8G65,8G67,8G68,8G69,8G6A,8SKL

> <UniProt (SwissProt) Recommended Name of Target Chain>
Tyrosine-protein phosphatase non-receptor type 1

> <UniProt (SwissProt) Entry Name of Target Chain>
PTN1_HUMAN

> <UniProt (SwissProt) Primary ID of Target Chain>
P18031

> <UniProt (SwissProt) Secondary ID(s) of Target Chain>
Q5TGD8 Q9BQV9 Q9NQQ4

$$$$
Molecule
  SciTegic10242319433D

 49 52  0  0  0  0            999 V2000
   12.3837   -6.3473    0.0000 C   0  0
   12.2935   -7.8229    0.0001 C   0  0
   13.4044   -8.5544    0.0002 C   0  0
   14.7102   -7.9337    0.0001 C   0  0
   14.8595   -6.6115    0.0000 C   0  0
   13.5645   -5.7149   -0.0001 C   0  0
   11.0301   -8.4677    0.0001 O   0  0
   13.4942   -4.2200   -0.0002 O   0  0
   16.2627   -6.0737   -0.0001 C   0  0
   17.4071   -6.7570    0.0000 C   0  0
   17.6525   -8.4016    0.0001 S   0  0
   19.3274   -8.3509    0.0001 C   0  0
   19.7761   -6.9907    0.0000 N   0  0
   18.7349   -6.1137   -0.0001 C   0  0
   18.8837   -4.8849   -0.0002 O   0  0
   20.0679   -9.3397    0.0002 O   0  0
   11.2126   -9.9041    0.0003 C   0  0
    9.9020  -10.6398    0.0000 C   0  0
    8.7495   -9.9728   -0.0004 C   0  0
    7.4795  -10.7097   -0.0007 C   0  0
    7.4791  -12.0425   -0.0005 C   0  0
    8.7470  -12.7750    0.0000 C   0  0
    9.8994  -12.1076    0.0002 C   0  0
   14.7424   -3.5053   -0.0002 C   0  0
   14.6804   -2.0146    0.0000 C   0  0
   15.8340   -1.3481    0.0000 C   0  0
   15.8498    0.1057    0.0002 C   0  0
   14.7024    0.7767    0.0004 C   0  0
   13.4226    0.0469    0.0003 C   0  0
   13.4119   -1.2880    0.0001 C   0  0
   14.7171    2.1167    0.0006 F   0  0
   11.4661   -5.7590    0.0000 H   0  0
   13.3289   -9.6418    0.0003 H   0  0
   15.5975   -8.5668    0.0002 H   0  0
   16.3564   -4.9878   -0.0002 H   0  0
   20.8055   -6.6991   -0.0001 H   0  0
   11.7747  -10.1871   -0.8897 H   0  0
   11.7742  -10.1870    0.8906 H   0  0
    8.7489   -8.8828   -0.0006 H   0  0
    6.5350  -10.1656   -0.0011 H   0  0
    6.5350  -12.5873   -0.0008 H   0  0
    8.7475  -13.8650    0.0001 H   0  0
   10.8433  -12.6528    0.0006 H   0  0
   15.2932   -3.8095    0.8898 H   0  0
   15.2930   -3.8093   -0.8905 H   0  0
   16.7751   -1.8981   -0.0001 H   0  0
   16.7983    0.6429    0.0003 H   0  0
   12.4823    0.5981    0.0004 H   0  0
   12.4666   -1.8308    0.0001 H   0  0
 14 15  2  0
  3  4  1  0
 12 16  2  0
  6  8  1  0
  7 17  1  0
 17 18  1  0
  9  5  1  0
 18 19  2  0
  4  5  2  0
 19 20  1  0
  9 10  2  0
 20 21  2  0
 10 11  1  0
 21 22  1  0
  2  3  2  0
 22 23  2  0
 23 18  1  0
  5  6  1  0
  8 24  1  0
  6  1  2  0
 24 25  1  0
  1  2  1  0
 25 26  2  0
 11 12  1  0
 26 27  1  0
 12 13  1  0
 27 28  2  0
 13 14  1  0
 28 29  1  0
 14 10  1  0
 29 30  2  0
 30 25  1  0
  2  7  1  0
 28 31  1  0
  1 32  1  0
  3 33  1  0
  4 34  1  0
  9 35  1  0
 13 36  1  0
 17 37  1  0
 17 38  1  0
 19 39  1  0
 20 40  1  0
 21 41  1  0
 22 42  1  0
 23 43  1  0
 24 44  1  0
 24 45  1  0
 26 46  1  0
 27 47  1  0
 29 48  1  0
 30 49  1  0
M  END
> <Name>
Molecule

> <Clean Energy>
34.5541

> <From>
www.bindingDB.org

> <BindingDB Reactant_set_id>
50650294

> <Ligand InChI>
InChI=1S/C24H18FNO4S/c25-19-9-6-17(7-10-19)15-30-21-13-20(29-14-16-4-2-1-3-5-16)11-8-18(21)12-22-23(27)26-24(28)31-22/h1-13H,14-15H2,(H,26,27,28)

> <Ligand InChI Key>
YPPZQANRGKMBPW-UHFFFAOYSA-N

> <BindingDB MonomerID>
50348693

> <BindingDB Ligand Name>
CHEMBL1801405

> <Target Name>
Tyrosine-protein phosphatase non-receptor type 1

> <Target Source Organism According to Curator or DataSource>
Homo sapiens

> <IC50 (nM)>
9000

> <Curation/DataSource>
ChEMBL

> <Article DOI>
10.1016/j.bmcl.2010.08.130

> <BindingDB Entry DOI>
10.7270/Q2FQ9X0G

> <PMID>
20850970

> <Authors>
Bhattarai, BR; Kafle, B; Hwang, JS; Ham, SW; Lee, KH; Park, H; Han, IO; Cho, H

> <Institution>
Inha University

> <Link to Ligand in BindingDB>
http://www.bindingdb.org/bind/chemsearch/marvin/MolStructure.jsp?monomerid=50348693

> <Link to Ligand-Target Pair in BindingDB>
http://www.bindingdb.org/jsp/dbsearch/PrimarySearch_ki.jsp?energyterm=kJ/mole&tag=pol&polymerid=2622&target=Tyrosine-protein+phosphatase+non-receptor+type+1&column=ki&startPg=0&Increment=50&submit=Sea
rch
http://www.bindingdb.org/jsp/dbsearch/PrimarySearch_ki.jsp?energyterm=kJ/mole&tag=r21&monomerid=50348693&enzyme=Tyrosine-protein+phosphatase+non-receptor+type+1&column=ki&startPg=0&Increment=50&submit
=Search

> <PubChem CID of Ligand>
56683323

> <PubChem SID of Ligand>
136355379

> <ChEMBL ID of Ligand>
CHEMBL1801405

> <ZINC ID of Ligand>
ZINC72109395

> <Number of Protein Chains in Target (bigger than 1 implies a multichain complex)>
1

> <BindingDB Target Chain Sequence>
MEMEKEFEQIDKSGSWAAIYQDIRHEASDFPCRVAKLPKNKNRNRYRDVSPFDHSRIKLHQEDNDYINASLIKMEEAQRSYILTQGPLPNTCGHFWEMVWEQKSRGVVMLNRVMEKGSLKCAQYWPQKEEKEMIFEDTNLKLTLISEDIKSYYTVRQLELENLTTQETREILHFHYTTWPDFGVPESPASFLNFLFKVRE
SGSLSPEHGPVVVHCSAGIGRSGTFCLADTCLLLMDKRKDPSSVDIKKVLLEMRKFRMGLIQTADQLRFSYLAVIEGAKFIMGDSSVQDQWKELSHEDLEPPPEHIPPPPRPPKRILEPHNGKCREFFPNHQWVKEETQEDKDCPIKEEKGSPLNAAPYGIESMSQDTEVRSRVVGGSLRGAQAASPAKGEPSLPEKDED
HALSYWKPFLVNMCVATVLTAGAYLCYRFLFNSNT

> <PDB ID(s) of Target Chain>
1BZJ,1G7G,1GFY,1JF7,1KAK,1KAV,1LQF,1NL9,1NNY,1NO6,1NZ7,1OEM,1OEO,1OES,1OET,1OEU,1OEV,1ONY,1ONZ,1PH0,1PXH,1PYN,1Q1M,1Q6J,1Q6M,1Q6N,1Q6P,1Q6S,1Q6T,1QXK,1SUG,1T48,1T49,1T4J,1WAX,1XBO,2AZR,2B07,2BGD,2BGE,
2CM2,2CM3,2CM7,2CM8,2CMA,2CMB,2CMC,2CNE,2CNF,2CNG,2CNH,2CNI,2F6T,2F6V,2F6W,2F6Y,2F6Z,2F70,2F71,2FJN,2H4G,2H4K,2HB1,2HNP,2HNQ,2QBP,2QBQ,2QBR,2QBS,2VEU,2VEV,2VEW,2VEX,2VEY,2ZMM,2ZN7,3A5J,3CWE,3D9C,3EAX,
3EB1,3EU0,3I7Z,3I80,3SME,4BJO,4I8N,4QBW,4Y14,5K9V,5K9W,5KA0,5KA1,5T19,6B90,6NTP,6W30,7KEY,7KLX,7LFO,7MN9,7MNA,8DU7,8G65,8G67,8G68,8G69,8G6A,8SKL

> <UniProt (SwissProt) Recommended Name of Target Chain>
Tyrosine-protein phosphatase non-receptor type 1

> <UniProt (SwissProt) Entry Name of Target Chain>
PTN1_HUMAN

> <UniProt (SwissProt) Primary ID of Target Chain>
P18031

> <UniProt (SwissProt) Secondary ID(s) of Target Chain>
Q5TGD8 Q9BQV9 Q9NQQ4

$$$$
Molecule
  SciTegic10242319433D

 49 52  0  0  0  0            999 V2000
   21.4555   -4.9905    0.0000 C   0  0
   21.3611   -6.4670    0.0001 C   0  0
   22.4715   -7.2007    0.0001 C   0  0
   23.7816   -6.5802    0.0001 C   0  0
   23.9313   -5.2581    0.0000 C   0  0
   22.6381   -4.3597   -0.0001 C   0  0
   20.0925   -7.1096    0.0001 O   0  0
   22.5712   -2.8629   -0.0001 O   0  0
   25.3318   -4.7150   -0.0001 C   0  0
   26.4830   -5.3871    0.0000 C   0  0
   26.7467   -7.0272    0.0001 S   0  0
   28.4226   -6.9552    0.0001 C   0  0
   28.8544   -5.5899    0.0000 N   0  0
   27.8023   -4.7259   -0.0001 C   0  0
   27.9355   -3.4960   -0.0002 O   0  0
   29.1760   -7.9341    0.0002 O   0  0
   20.2682   -8.5479    0.0002 C   0  0
   18.9551   -9.2876    0.0001 C   0  0
   17.7988   -8.6263   -0.0002 C   0  0
   16.5309   -9.3712   -0.0003 C   0  0
   16.5378  -10.7046   -0.0001 C   0  0
   17.8089  -11.4290    0.0003 C   0  0
   18.9579  -10.7557    0.0004 C   0  0
   23.8217   -2.1450   -0.0002 C   0  0
   23.7552   -0.6542   -0.0001 C   0  0
   24.9048    0.0208    0.0000 C   0  0
   24.9083    1.4780    0.0001 C   0  0
   23.7533    2.1385    0.0001 C   0  0
   22.4833    1.3971    0.0001 C   0  0
   22.4836    0.0629    0.0000 C   0  0
   15.3805  -11.3839   -0.0001 F   0  0
   20.5392   -4.4002   -0.0001 H   0  0
   22.3943   -8.2879    0.0002 H   0  0
   24.6683   -7.2141    0.0001 H   0  0
   25.4181   -3.6284   -0.0002 H   0  0
   29.8802   -5.2855   -0.0001 H   0  0
   20.8297   -8.8318   -0.8898 H   0  0
   20.8295   -8.8317    0.8905 H   0  0
   17.7924   -7.5363   -0.0003 H   0  0
   15.5835   -8.8323   -0.0005 H   0  0
   17.8155  -12.5190    0.0005 H   0  0
   19.9041  -11.2968    0.0006 H   0  0
   24.3730   -2.4481    0.8899 H   0  0
   24.3729   -2.4480   -0.8904 H   0  0
   25.8501   -0.5219   -0.0001 H   0  0
   25.8518    2.0238    0.0001 H   0  0
   23.7485    3.2285    0.0002 H   0  0
   21.5380    1.9397    0.0001 H   0  0
   21.5424   -0.4870   -0.0001 H   0  0
 14 15  2  0
  3  4  1  0
 12 16  2  0
  6  8  1  0
  7 17  1  0
 17 18  1  0
  9  5  1  0
 18 19  2  0
  4  5  2  0
 19 20  1  0
  9 10  2  0
 20 21  2  0
 10 11  1  0
 21 22  1  0
  2  3  2  0
 22 23  2  0
 23 18  1  0
  5  6  1  0
  8 24  1  0
  6  1  2  0
 24 25  1  0
  1  2  1  0
 25 26  2  0
 11 12  1  0
 26 27  1  0
 12 13  1  0
 27 28  2  0
 13 14  1  0
 28 29  1  0
 14 10  1  0
 29 30  2  0
 30 25  1  0
  2  7  1  0
 21 31  1  0
  1 32  1  0
  3 33  1  0
  4 34  1  0
  9 35  1  0
 13 36  1  0
 17 37  1  0
 17 38  1  0
 19 39  1  0
 20 40  1  0
 22 41  1  0
 23 42  1  0
 24 43  1  0
 24 44  1  0
 26 45  1  0
 27 46  1  0
 28 47  1  0
 29 48  1  0
 30 49  1  0
M  END
> <Name>
Molecule

> <Clean Energy>
34.6075

> <From>
www.bindingDB.org

> <BindingDB Reactant_set_id>
50650295

> <Ligand InChI>
InChI=1S/C24H18FNO4S/c25-19-9-6-17(7-10-19)14-29-20-11-8-18(12-22-23(27)26-24(28)31-22)21(13-20)30-15-16-4-2-1-3-5-16/h1-13H,14-15H2,(H,26,27,28)

> <Ligand InChI Key>
LVPAAEJZWBWWJL-UHFFFAOYSA-N

> <BindingDB MonomerID>
50348694

> <BindingDB Ligand Name>
CHEMBL1801406

> <Target Name>
Tyrosine-protein phosphatase non-receptor type 1

> <Target Source Organism According to Curator or DataSource>
Homo sapiens

> <IC50 (nM)>
9000

> <Curation/DataSource>
ChEMBL

> <Article DOI>
10.1016/j.bmcl.2010.08.130

> <BindingDB Entry DOI>
10.7270/Q2FQ9X0G

> <PMID>
20850970

> <Authors>
Bhattarai, BR; Kafle, B; Hwang, JS; Ham, SW; Lee, KH; Park, H; Han, IO; Cho, H

> <Institution>
Inha University

> <Link to Ligand in BindingDB>
http://www.bindingdb.org/bind/chemsearch/marvin/MolStructure.jsp?monomerid=50348694

> <Link to Ligand-Target Pair in BindingDB>
http://www.bindingdb.org/jsp/dbsearch/PrimarySearch_ki.jsp?energyterm=kJ/mole&tag=pol&polymerid=2622&target=Tyrosine-protein+phosphatase+non-receptor+type+1&column=ki&startPg=0&Increment=50&submit=Sea
rch
http://www.bindingdb.org/jsp/dbsearch/PrimarySearch_ki.jsp?energyterm=kJ/mole&tag=r21&monomerid=50348694&enzyme=Tyrosine-protein+phosphatase+non-receptor+type+1&column=ki&startPg=0&Increment=50&submit
=Search

> <PubChem CID of Ligand>
56662949

> <PubChem SID of Ligand>
136355380

> <ChEMBL ID of Ligand>
CHEMBL1801406

> <ZINC ID of Ligand>
ZINC72109396

> <Number of Protein Chains in Target (bigger than 1 implies a multichain complex)>
1

> <BindingDB Target Chain Sequence>
MEMEKEFEQIDKSGSWAAIYQDIRHEASDFPCRVAKLPKNKNRNRYRDVSPFDHSRIKLHQEDNDYINASLIKMEEAQRSYILTQGPLPNTCGHFWEMVWEQKSRGVVMLNRVMEKGSLKCAQYWPQKEEKEMIFEDTNLKLTLISEDIKSYYTVRQLELENLTTQETREILHFHYTTWPDFGVPESPASFLNFLFKVRE
SGSLSPEHGPVVVHCSAGIGRSGTFCLADTCLLLMDKRKDPSSVDIKKVLLEMRKFRMGLIQTADQLRFSYLAVIEGAKFIMGDSSVQDQWKELSHEDLEPPPEHIPPPPRPPKRILEPHNGKCREFFPNHQWVKEETQEDKDCPIKEEKGSPLNAAPYGIESMSQDTEVRSRVVGGSLRGAQAASPAKGEPSLPEKDED
HALSYWKPFLVNMCVATVLTAGAYLCYRFLFNSNT

> <PDB ID(s) of Target Chain>
1BZJ,1G7G,1GFY,1JF7,1KAK,1KAV,1LQF,1NL9,1NNY,1NO6,1NZ7,1OEM,1OEO,1OES,1OET,1OEU,1OEV,1ONY,1ONZ,1PH0,1PXH,1PYN,1Q1M,1Q6J,1Q6M,1Q6N,1Q6P,1Q6S,1Q6T,1QXK,1SUG,1T48,1T49,1T4J,1WAX,1XBO,2AZR,2B07,2BGD,2BGE,
2CM2,2CM3,2CM7,2CM8,2CMA,2CMB,2CMC,2CNE,2CNF,2CNG,2CNH,2CNI,2F6T,2F6V,2F6W,2F6Y,2F6Z,2F70,2F71,2FJN,2H4G,2H4K,2HB1,2HNP,2HNQ,2QBP,2QBQ,2QBR,2QBS,2VEU,2VEV,2VEW,2VEX,2VEY,2ZMM,2ZN7,3A5J,3CWE,3D9C,3EAX,
3EB1,3EU0,3I7Z,3I80,3SME,4BJO,4I8N,4QBW,4Y14,5K9V,5K9W,5KA0,5KA1,5T19,6B90,6NTP,6W30,7KEY,7KLX,7LFO,7MN9,7MNA,8DU7,8G65,8G67,8G68,8G69,8G6A,8SKL

> <UniProt (SwissProt) Recommended Name of Target Chain>
Tyrosine-protein phosphatase non-receptor type 1

> <UniProt (SwissProt) Entry Name of Target Chain>
PTN1_HUMAN

> <UniProt (SwissProt) Primary ID of Target Chain>
P18031

> <UniProt (SwissProt) Secondary ID(s) of Target Chain>
Q5TGD8 Q9BQV9 Q9NQQ4

$$$$
Molecule
  SciTegic10242319433D

 35 37  0  0  0  0            999 V2000
   -4.9605   -1.4916    0.0000 C   0  0
   -5.1063   -2.9414    0.0000 C   0  0
   -4.0256   -3.7124    0.0000 C   0  0
   -2.7040   -3.1089    0.0000 C   0  0
   -2.5430   -1.7878    0.0000 C   0  0
   -3.7504   -0.9209    0.0000 C   0  0
   -3.6481    0.4934    0.0000 O   0  0
   -4.9845    1.0552   -0.0001 C   0  0
   -4.9953    2.5550    0.0000 C   0  0
   -3.7455    3.3154    0.0005 C   0  0
   -3.7819    4.6482    0.0006 C   0  0
   -5.0709    5.3508    0.0003 C   0  0
   -6.2067    4.6561   -0.0001 C   0  0
   -6.1650    3.1941   -0.0003 C   0  0
   -1.1709   -1.1910   -0.0001 C   0  0
   -0.0392   -1.9227   -0.0001 C   0  0
    0.1381   -3.5748   -0.0001 S   0  0
    1.8213   -3.6413   -0.0002 C   0  0
    2.3395   -2.4618   -0.0002 N   0  0
    1.3267   -1.3972   -0.0002 C   0  0
    1.6009   -0.1933   -0.0002 O   0  0
    2.5549   -4.8247   -0.0002 O   0  0
   -4.2013   -5.6034    0.0000 Br  0  0
   -5.8507   -0.8625    0.0000 H   0  0
   -6.0991   -3.3913    0.0000 H   0  0
   -1.8244   -3.7526   -0.0001 H   0  0
   -5.5071    0.7053   -0.8903 H   0  0
   -5.5073    0.7051    0.8900 H   0  0
   -2.7882    2.7943    0.0008 H   0  0
   -2.8523    5.2175    0.0010 H   0  0
   -5.0981    6.4405    0.0004 H   0  0
   -7.1650    5.1755   -0.0004 H   0  0
   -7.0945    2.6248   -0.0006 H   0  0
   -1.0819   -0.1046   -0.0001 H   0  0
    2.3190   -5.3834    0.8570 H   0  0
  5  6  1  0
 11 12  1  0
  6  1  2  0
 12 13  2  0
  1  2  1  0
 13 14  1  0
 14  9  2  0
  6  7  1  0
 15  5  1  0
  3  4  1  0
 15 16  2  0
 16 17  1  0
  7  8  1  0
  8  9  1  0
  4  5  2  0
 17 18  1  0
 18 19  2  0
 19 20  1  0
 20 16  1  0
  9 10  1  0
 20 21  2  0
  2  3  2  0
 18 22  1  0
 10 11  2  0
  3 23  1  0
  1 24  1  0
  2 25  1  0
  4 26  1  0
  8 27  1  0
  8 28  1  0
 10 29  1  0
 11 30  1  0
 12 31  1  0
 13 32  1  0
 14 33  1  0
 15 34  1  0
 22 35  1  0
M  END
> <Name>
Molecule

> <Clean Energy>
23.5712

> <From>
www.bindingDB.org

> <BindingDB Reactant_set_id>
50532122

> <Ligand InChI>
InChI=1S/C17H12BrNO3S/c18-13-6-7-14(22-10-11-4-2-1-3-5-11)12(8-13)9-15-16(20)19-17(21)23-15/h1-9H,10H2,(H,19,20,21)

> <Ligand InChI Key>
SUMSYVBJVINGRU-UHFFFAOYSA-N

> <BindingDB MonomerID>
50299149

> <BindingDB Ligand Name>
(Z)-5-(2-Benzyloxy-5-bromobenzylidene)thiazolidine-2,4-dione::5-(2-(benzyloxy)-5-bromobenzylidene)thiazolidine-2,4-dione::5-(2-Benzyloxy-5-bromo-benzylidene)-thiazolidine-2,4-dione::CHEMBL362497

> <Target Name>
Tyrosine-protein phosphatase non-receptor type 1

> <Target Source Organism According to Curator or DataSource>
Homo sapiens

> <IC50 (nM)>
9000

> <Curation/DataSource>
ChEMBL

> <Article DOI>
10.1016/j.bmcl.2009.09.020

> <BindingDB Entry DOI>
10.7270/Q20P102S

> <PMID>
19783142

> <Authors>
Bhattarai, BR; Kafle, B; Hwang, JS; Khadka, D; Lee, SM; Kang, JS; Ham, SW; Han, IO; Park, H; Cho, H

> <Institution>
Inha University

> <Link to Ligand in BindingDB>
http://www.bindingdb.org/bind/chemsearch/marvin/MolStructure.jsp?monomerid=50299149

> <Link to Ligand-Target Pair in BindingDB>
http://www.bindingdb.org/jsp/dbsearch/PrimarySearch_ki.jsp?energyterm=kJ/mole&tag=pol&polymerid=2622&target=Tyrosine-protein+phosphatase+non-receptor+type+1&column=ki&startPg=0&Increment=50&submit=Sea
rch
http://www.bindingdb.org/jsp/dbsearch/PrimarySearch_ki.jsp?energyterm=kJ/mole&tag=r21&monomerid=50299149&enzyme=Tyrosine-protein+phosphatase+non-receptor+type+1&column=ki&startPg=0&Increment=50&submit
=Search

> <PubChem CID of Ligand>
16634009

> <PubChem SID of Ligand>
104140678

> <ChEMBL ID of Ligand>
CHEMBL362497

> <ZINC ID of Ligand>
ZINC15055845

> <Number of Protein Chains in Target (bigger than 1 implies a multichain complex)>
1

> <BindingDB Target Chain Sequence>
MEMEKEFEQIDKSGSWAAIYQDIRHEASDFPCRVAKLPKNKNRNRYRDVSPFDHSRIKLHQEDNDYINASLIKMEEAQRSYILTQGPLPNTCGHFWEMVWEQKSRGVVMLNRVMEKGSLKCAQYWPQKEEKEMIFEDTNLKLTLISEDIKSYYTVRQLELENLTTQETREILHFHYTTWPDFGVPESPASFLNFLFKVRE
SGSLSPEHGPVVVHCSAGIGRSGTFCLADTCLLLMDKRKDPSSVDIKKVLLEMRKFRMGLIQTADQLRFSYLAVIEGAKFIMGDSSVQDQWKELSHEDLEPPPEHIPPPPRPPKRILEPHNGKCREFFPNHQWVKEETQEDKDCPIKEEKGSPLNAAPYGIESMSQDTEVRSRVVGGSLRGAQAASPAKGEPSLPEKDED
HALSYWKPFLVNMCVATVLTAGAYLCYRFLFNSNT

> <PDB ID(s) of Target Chain>
1BZJ,1G7G,1GFY,1JF7,1KAK,1KAV,1LQF,1NL9,1NNY,1NO6,1NZ7,1OEM,1OEO,1OES,1OET,1OEU,1OEV,1ONY,1ONZ,1PH0,1PXH,1PYN,1Q1M,1Q6J,1Q6M,1Q6N,1Q6P,1Q6S,1Q6T,1QXK,1SUG,1T48,1T49,1T4J,1WAX,1XBO,2AZR,2B07,2BGD,2BGE,
2CM2,2CM3,2CM7,2CM8,2CMA,2CMB,2CMC,2CNE,2CNF,2CNG,2CNH,2CNI,2F6T,2F6V,2F6W,2F6Y,2F6Z,2F70,2F71,2FJN,2H4G,2H4K,2HB1,2HNP,2HNQ,2QBP,2QBQ,2QBR,2QBS,2VEU,2VEV,2VEW,2VEX,2VEY,2ZMM,2ZN7,3A5J,3CWE,3D9C,3EAX,
3EB1,3EU0,3I7Z,3I80,3SME,4BJO,4I8N,4QBW,4Y14,5K9V,5K9W,5KA0,5KA1,5T19,6B90,6NTP,6W30,7KEY,7KLX,7LFO,7MN9,7MNA,8DU7,8G65,8G67,8G68,8G69,8G6A,8SKL

> <UniProt (SwissProt) Recommended Name of Target Chain>
Tyrosine-protein phosphatase non-receptor type 1

> <UniProt (SwissProt) Entry Name of Target Chain>
PTN1_HUMAN

> <UniProt (SwissProt) Primary ID of Target Chain>
P18031

> <UniProt (SwissProt) Secondary ID(s) of Target Chain>
Q5TGD8 Q9BQV9 Q9NQQ4

$$$$
Molecule
  SciTegic10242319433D

 75 79  0  0  0  0            999 V2000
   20.4982  -26.8173   -0.0815 C   0  0
   20.4247  -27.7600   -1.2972 C   0  0
   20.5117  -27.8033    1.1083 C   0  0
   20.5323  -23.8336   -0.5067 C   0  0
   21.7693  -24.5028    0.1469 C   0  0  1  0  0  0
   21.7936  -26.0074   -0.1339 C   0  0
   22.9468  -26.6572   -0.3432 C   0  0
   24.2918  -25.9615   -0.3891 C   0  0
   23.0892  -23.7919   -0.3077 C   0  0  2  0  0  0
   24.2728  -24.5605    0.2663 C   0  0  2  0  0  0
   24.4272  -21.6232   -0.1799 C   0  0
   23.0850  -22.3104    0.2152 C   0  0
   25.6176  -22.4151    0.4551 C   0  0  1  0  0  0
   25.5731  -23.8273   -0.0775 C   0  0  1  0  0  0
   26.8143  -24.4908    0.5269 C   0  0
   27.8211  -23.3026    0.6107 C   0  0
   27.0785  -22.0847   -0.0485 C   0  0  2  0  0  0
   25.5364  -22.3539    2.0138 C   0  0
   21.6018  -24.3511    1.7032 C   0  0
   27.7317  -20.6187    0.3048 C   0  0  2  0  0  0
   26.9221  -19.4674   -0.3350 C   0  0
   29.2129  -20.3673   -0.2199 C   0  0
   30.3166  -21.2889    0.3567 C   0  0
   31.6700  -20.8852   -0.1558 C   0  0
   32.7699  -21.7598   -0.0566 O   0  0
   31.8191  -19.7731   -0.6734 O   0  0
   19.2629  -25.9566   -0.0202 C   0  0
   19.2971  -24.6352   -0.2081 C   0  0
   17.7531  -24.0678   -0.1012 S   0  0
   17.0302  -25.5489    0.2082 C   0  0
   17.9157  -26.4807    0.2304 N   0  0
   15.6634  -25.7438    0.4108 N   0  0
   32.3979  -23.0129    0.5458 C   0  0
   20.4091  -27.1709   -2.2140 H   0  0
   19.5176  -28.3614   -1.2369 H   0  0
   21.2953  -28.4159   -1.3022 H   0  0
   20.5631  -27.2451    2.0430 H   0  0
   21.3796  -28.4580    1.0285 H   0  0
   19.6018  -28.4035    1.0937 H   0  0
   20.6775  -23.7828   -1.5857 H   0  0
   20.4140  -22.8262   -0.1076 H   0  0
   22.9156  -27.7372   -0.4872 H   0  0
   25.0202  -26.5798    0.1354 H   0  0
   24.5906  -25.8526   -1.4317 H   0  0
   23.1473  -23.7937   -1.3962 H   0  0
   24.1699  -24.6540    1.3474 H   0  0
   24.4338  -20.5976    0.1891 H   0  0
   24.5293  -21.6202   -1.2651 H   0  0
   22.2524  -21.7681   -0.2330 H   0  0
   22.9796  -22.3072    1.3000 H   0  0
   25.6835  -23.7975   -1.1615 H   0  0
   26.6019  -24.8981    1.5153 H   0  0
   27.1922  -25.2829   -0.1196 H   0  0
   28.0670  -23.0831    1.6496 H   0  0
   28.7337  -23.5359    0.0622 H   0  0
   27.1033  -22.2163   -1.1303 H   0  0
   26.3703  -22.9087    2.4436 H   0  0
   24.5970  -22.7952    2.3468 H   0  0
   25.5851  -21.3150    2.3402 H   0  0
   22.4527  -24.8094    2.2071 H   0  0
   20.6833  -24.8451    2.0202 H   0  0
   21.5532  -23.2935    1.9625 H   0  0
   27.7218  -20.4880    1.3869 H   0  0
   27.3830  -18.5131   -0.0802 H   0  0
   25.8995  -19.4884    0.0418 H   0  0
   26.9123  -19.5877   -1.4184 H   0  0
   29.2068  -20.4954   -1.3023 H   0  0
   29.4800  -19.3389    0.0232 H   0  0
   30.3103  -21.2166    1.4443 H   0  0
   30.1143  -22.3179    0.0593 H   0  0
   14.9929  -24.9108    0.3739 H   0  0
   15.2859  -26.7264    0.6031 H   0  0
   33.2719  -23.6615    0.6055 H   0  0
   31.6299  -23.4939   -0.0599 H   0  0
   32.0099  -22.8336    1.5485 H   0  0
  2  1  1  0
  1  3  1  0
 28  4  1  0
 27  1  1  0
  1  6  1  0
  5  4  1  0
  5  6  1  0
  9  5  1  0
  6  7  2  0
  7  8  1  0
 10  8  1  0
  9 10  1  0
  9 12  1  0
 10 14  1  0
 13 11  1  0
 11 12  1  0
 14 13  1  0
 14 15  1  0
 15 16  1  0
 17 16  1  0
 13 17  1  0
 13 18  1  0
  5 19  1  0
 17 20  1  0
 20 21  1  0
 20 22  1  0
 22 23  1  0
 23 24  1  0
 24 25  1  0
 24 26  2  0
 27 28  2  0
 28 29  1  0
 29 30  1  0
 30 31  2  0
 31 27  1  0
 30 32  1  0
 25 33  1  0
  2 34  1  0
  2 35  1  0
  2 36  1  0
  3 37  1  0
  3 38  1  0
  3 39  1  0
  4 40  1  0
  4 41  1  0
  7 42  1  0
  8 43  1  0
  8 44  1  0
  9 45  1  0
 10 46  1  0
 11 47  1  0
 11 48  1  0
 12 49  1  0
 12 50  1  0
 14 51  1  0
 15 52  1  0
 15 53  1  0
 16 54  1  0
 16 55  1  0
 17 56  1  0
 18 57  1  0
 18 58  1  0
 18 59  1  0
 19 60  1  0
 19 61  1  0
 19 62  1  0
 20 63  1  0
 21 64  1  0
 21 65  1  0
 21 66  1  0
 22 67  1  0
 22 68  1  0
 23 69  1  0
 23 70  1  0
 32 71  1  0
 32 72  1  0
 33 73  1  0
 33 74  1  0
 33 75  1  0
M  END
> <Name>
Molecule

> <Clean Energy>
104.699

> <From>
www.bindingDB.org

> <BindingDB Reactant_set_id>
50979472

> <Ligand InChI>
InChI=1S/C28H42N2O2S/c1-16(7-12-23(31)32-6)18-9-10-19-17-8-11-22-26(2,3)24-21(33-25(29)30-24)15-28(22,5)20(17)13-14-27(18,19)4/h11,16-20H,7-10,12-15H2,1-6H3,(H2,29,30)/t16-,17+,18-,19+,20+,27-,28-/m1/
s1

> <Ligand InChI Key>
JFWDJSDXZCZYLH-GSCIYCFQSA-N

> <BindingDB MonomerID>
50401498

> <BindingDB Ligand Name>
CHEMBL2205885

> <Target Name>
Tyrosine-protein phosphatase non-receptor type 1

> <Target Source Organism According to Curator or DataSource>
Homo sapiens

> <IC50 (nM)>
9040

> <Curation/DataSource>
ChEMBL

> <Article DOI>
10.1016/j.bmcl.2012.09.040

> <BindingDB Entry DOI>
10.7270/Q2JH3NCP

> <PMID>
23067554

> <Authors>
He, HB; Gao, LX; Deng, QF; Ma, WP; Tang, CL; Qiu, WW; Tang, J; Li, JY; Li, J; Yang, F

> <Institution>
East China Normal University

> <Link to Ligand in BindingDB>
http://www.bindingdb.org/bind/chemsearch/marvin/MolStructure.jsp?monomerid=50401498

> <Link to Ligand-Target Pair in BindingDB>
http://www.bindingdb.org/jsp/dbsearch/PrimarySearch_ki.jsp?energyterm=kJ/mole&tag=pol&polymerid=2622&target=Tyrosine-protein+phosphatase+non-receptor+type+1&column=ki&startPg=0&Increment=50&submit=Sea
rch
http://www.bindingdb.org/jsp/dbsearch/PrimarySearch_ki.jsp?energyterm=kJ/mole&tag=r21&monomerid=50401498&enzyme=Tyrosine-protein+phosphatase+non-receptor+type+1&column=ki&startPg=0&Increment=50&submit
=Search

> <PubChem CID of Ligand>
71463071

> <PubChem SID of Ligand>
163350522

> <ChEMBL ID of Ligand>
CHEMBL2205885

> <ZINC ID of Ligand>
ZINC95564345

> <Number of Protein Chains in Target (bigger than 1 implies a multichain complex)>
1

> <BindingDB Target Chain Sequence>
MEMEKEFEQIDKSGSWAAIYQDIRHEASDFPCRVAKLPKNKNRNRYRDVSPFDHSRIKLHQEDNDYINASLIKMEEAQRSYILTQGPLPNTCGHFWEMVWEQKSRGVVMLNRVMEKGSLKCAQYWPQKEEKEMIFEDTNLKLTLISEDIKSYYTVRQLELENLTTQETREILHFHYTTWPDFGVPESPASFLNFLFKVRE
SGSLSPEHGPVVVHCSAGIGRSGTFCLADTCLLLMDKRKDPSSVDIKKVLLEMRKFRMGLIQTADQLRFSYLAVIEGAKFIMGDSSVQDQWKELSHEDLEPPPEHIPPPPRPPKRILEPHNGKCREFFPNHQWVKEETQEDKDCPIKEEKGSPLNAAPYGIESMSQDTEVRSRVVGGSLRGAQAASPAKGEPSLPEKDED
HALSYWKPFLVNMCVATVLTAGAYLCYRFLFNSNT

> <PDB ID(s) of Target Chain>
1BZJ,1G7G,1GFY,1JF7,1KAK,1KAV,1LQF,1NL9,1NNY,1NO6,1NZ7,1OEM,1OEO,1OES,1OET,1OEU,1OEV,1ONY,1ONZ,1PH0,1PXH,1PYN,1Q1M,1Q6J,1Q6M,1Q6N,1Q6P,1Q6S,1Q6T,1QXK,1SUG,1T48,1T49,1T4J,1WAX,1XBO,2AZR,2B07,2BGD,2BGE,
2CM2,2CM3,2CM7,2CM8,2CMA,2CMB,2CMC,2CNE,2CNF,2CNG,2CNH,2CNI,2F6T,2F6V,2F6W,2F6Y,2F6Z,2F70,2F71,2FJN,2H4G,2H4K,2HB1,2HNP,2HNQ,2QBP,2QBQ,2QBR,2QBS,2VEU,2VEV,2VEW,2VEX,2VEY,2ZMM,2ZN7,3A5J,3CWE,3D9C,3EAX,
3EB1,3EU0,3I7Z,3I80,3SME,4BJO,4I8N,4QBW,4Y14,5K9V,5K9W,5KA0,5KA1,5T19,6B90,6NTP,6W30,7KEY,7KLX,7LFO,7MN9,7MNA,8DU7,8G65,8G67,8G68,8G69,8G6A,8SKL

> <UniProt (SwissProt) Recommended Name of Target Chain>
Tyrosine-protein phosphatase non-receptor type 1

> <UniProt (SwissProt) Entry Name of Target Chain>
PTN1_HUMAN

> <UniProt (SwissProt) Primary ID of Target Chain>
P18031

> <UniProt (SwissProt) Secondary ID(s) of Target Chain>
Q5TGD8 Q9BQV9 Q9NQQ4

$$$$
Molecule
  SciTegic10242319433D

 71 75  0  0  0  0            999 V2000
   -4.9792    5.0309    0.0596 C   0  0
   -3.7824    5.6144    0.0840 C   0  0
   -2.5707    4.8000   -0.0060 C   0  0
   -2.6640    3.4769   -0.1220 C   0  0
   -3.9764    2.8360   -0.1481 C   0  0
   -5.0847    3.5733   -0.0566 C   0  0
   -1.4559    2.6616   -0.2115 C   0  0
   -0.1440    3.2886   -0.1211 C   0  0
   -0.0460    4.6116    0.0094 C   0  0
   -1.2594    5.4367    0.0445 C   0  0
   -1.1780    6.6653    0.1504 O   0  0
    1.2696    5.2312    0.1455 C   0  0
    2.3634    4.4723    0.1521 C   0  0
    2.2625    3.0111   -0.0014 C   0  0
    1.0613    2.4543   -0.1468 C   0  0
    3.4633    2.2541    0.0340 O   0  0
    3.4315    0.8259   -0.3105 C   0  0  1  0  0  0
    4.8148    0.2876    0.1157 C   0  0  1  0  0  0
    4.9246   -1.1877   -0.2376 C   0  0  2  0  0  0
    3.8053   -1.9525    0.4760 C   0  0  1  0  0  0
    2.4529   -1.3785    0.0057 C   0  0  2  0  0  0
    2.3917    0.0546    0.3650 O   0  0
    1.2643   -2.1278    0.6959 C   0  0
    1.3083   -3.5796    0.5452 O   0  0
    0.1046   -4.1524   -0.0412 C   0  0  1  0  0  0
    0.1532   -5.7000    0.1621 C   0  0  1  0  0  0
   -1.1161   -6.3344   -0.4206 C   0  0  2  0  0  0
   -2.3255   -5.7175    0.2840 C   0  0  1  0  0  0
   -2.2916   -4.1911    0.0598 C   0  0
   -1.0698   -3.6348    0.6230 O   0  0
   -3.5299   -6.2724   -0.2547 O   0  0
   -1.1023   -7.7510   -0.2079 O   0  0
    1.3033   -6.2487   -0.4816 O   0  0
    3.8971   -3.3378    0.1385 O   0  0
    6.1981   -1.6868    0.1780 O   0  0
    5.8450    1.0182   -0.5522 O   0  0
    3.7113    5.1152    0.3028 C   0  0
    1.3848    6.6121    0.2810 O   0  0
   -1.5456    1.4336   -0.3120 O   0  0
   -6.3555    2.9711   -0.0645 O   0  0
   -6.2588    1.5410   -0.1670 C   0  0
   -5.8819    5.6381    0.1262 H   0  0
   -3.7057    6.6982    0.1710 H   0  0
   -4.0505    1.7526   -0.2426 H   0  0
    0.9742    1.3766   -0.2852 H   0  0
    3.3184    0.7171   -1.3891 H   0  0
    4.9303    0.4081    1.1928 H   0  0
    4.8197   -1.3120   -1.3154 H   0  0
    3.9034   -1.8285    1.5545 H   0  0
    2.3700   -1.4852   -1.0759 H   0  0
    1.2834   -1.8932    1.7602 H   0  0
    0.3327   -1.7664    0.2604 H   0  0
    0.0627   -3.9189   -1.1051 H   0  0
    0.2035   -5.9182    1.2288 H   0  0
   -1.1708   -6.1262   -1.4892 H   0  0
   -2.2723   -5.9301    1.3518 H   0  0
   -2.3245   -3.9821   -1.0094 H   0  0
   -3.1540   -3.7353    0.5463 H   0  0
   -3.5822   -6.0649   -1.2827 H   0  0
   -0.2619   -8.1680   -0.6795 H   0  0
    1.2627   -6.0396   -1.5098 H   0  0
    3.7965   -3.4529   -0.9004 H   0  0
    6.9597   -1.1538   -0.3101 H   0  0
    5.7352    0.9091   -1.5907 H   0  0
    4.4846    4.3472    0.2865 H   0  0
    3.7541    5.6531    1.2498 H   0  0
    3.8756    5.8128   -0.5186 H   0  0
    0.9722    7.0827   -0.5622 H   0  0
   -7.2591    1.1080   -0.1705 H   0  0
   -5.6982    1.1524    0.6831 H   0  0
   -5.7458    1.2764   -1.0917 H   0  0
  2  1  2  0
  3  2  1  0
  4  3  2  0
  5  4  1  0
  6  5  2  0
  1  6  1  0
  4  7  1  0
  7  8  1  0
  8  9  2  0
  9 10  1  0
  3 10  1  0
 10 11  2  0
  9 12  1  0
 13 12  2  0
 14 13  1  0
 15 14  2  0
  8 15  1  0
 14 16  1  0
 17 16  1  0
 18 17  1  0
 19 18  1  0
 20 19  1  0
 21 20  1  0
 22 21  1  0
 17 22  1  0
 21 23  1  0
 23 24  1  0
 25 24  1  0
 26 25  1  0
 27 26  1  0
 28 27  1  0
 29 28  1  0
 30 29  1  0
 25 30  1  0
 28 31  1  0
 27 32  1  0
 26 33  1  0
 20 34  1  0
 19 35  1  0
 18 36  1  0
 13 37  1  0
 12 38  1  0
  7 39  2  0
  6 40  1  0
 40 41  1  0
  1 42  1  0
  2 43  1  0
  5 44  1  0
 15 45  1  0
 17 46  1  0
 18 47  1  0
 19 48  1  0
 20 49  1  0
 21 50  1  0
 23 51  1  0
 23 52  1  0
 25 53  1  0
 26 54  1  0
 27 55  1  0
 28 56  1  0
 29 57  1  0
 29 58  1  0
 31 59  1  0
 32 60  1  0
 33 61  1  0
 34 62  1  0
 35 63  1  0
 36 64  1  0
 37 65  1  0
 37 66  1  0
 37 67  1  0
 38 68  1  0
 41 69  1  0
 41 70  1  0
 41 71  1  0
M  END
> <Name>
Molecule

> <Clean Energy>
1.76409

> <From>
www.bindingDB.org

> <BindingDB Reactant_set_id>
51508295

> <Ligand InChI>
InChI=1S/C27H30O14/c1-9-15(6-13-17(18(9)29)20(31)11-4-3-10(37-2)5-12(11)19(13)30)40-27-25(36)23(34)22(33)16(41-27)8-39-26-24(35)21(32)14(28)7-38-26/h3-6,14,16,21-29,32-36H,7-8H2,1-2H3/t14-,16-,21+,22-
,23+,24-,25-,26+,27-/m1/s1

> <Ligand InChI Key>
AHEQKTSMCOMSRG-FSPHWQEPSA-N

> <BindingDB MonomerID>
50607775

> <BindingDB Ligand Name>
CHEMBL5220139

> <Target Name>
Tyrosine-protein phosphatase non-receptor type 1

> <Target Source Organism According to Curator or DataSource>
Homo sapiens

> <IC50 (nM)>
9040

> <Curation/DataSource>
ChEMBL

> <BindingDB Entry DOI>
10.7270/Q2KW5M40

> <PMID>
36399709

> <Authors>
Zhang, Z; Shang, ZP; Jiang, Y; Qu, ZX; Yang, RY; Zhang, J; Lin, YX; Zhao, F

> <Institution>
Binzhou Medical University

> <Link to Ligand in BindingDB>
http://www.bindingdb.org/bind/chemsearch/marvin/MolStructure.jsp?monomerid=50607775

> <Link to Ligand-Target Pair in BindingDB>
http://www.bindingdb.org/jsp/dbsearch/PrimarySearch_ki.jsp?energyterm=kJ/mole&tag=pol&polymerid=2622&target=Tyrosine-protein+phosphatase+non-receptor+type+1&column=ki&startPg=0&Increment=50&submit=Sea
rch
http://www.bindingdb.org/jsp/dbsearch/PrimarySearch_ki.jsp?energyterm=kJ/mole&tag=r21&monomerid=50607775&enzyme=Tyrosine-protein+phosphatase+non-receptor+type+1&column=ki&startPg=0&Increment=50&submit
=Search

> <PubChem CID of Ligand>
168298862

> <PubChem SID of Ligand>
482618626

> <Number of Protein Chains in Target (bigger than 1 implies a multichain complex)>
1

> <BindingDB Target Chain Sequence>
MEMEKEFEQIDKSGSWAAIYQDIRHEASDFPCRVAKLPKNKNRNRYRDVSPFDHSRIKLHQEDNDYINASLIKMEEAQRSYILTQGPLPNTCGHFWEMVWEQKSRGVVMLNRVMEKGSLKCAQYWPQKEEKEMIFEDTNLKLTLISEDIKSYYTVRQLELENLTTQETREILHFHYTTWPDFGVPESPASFLNFLFKVRE
SGSLSPEHGPVVVHCSAGIGRSGTFCLADTCLLLMDKRKDPSSVDIKKVLLEMRKFRMGLIQTADQLRFSYLAVIEGAKFIMGDSSVQDQWKELSHEDLEPPPEHIPPPPRPPKRILEPHNGKCREFFPNHQWVKEETQEDKDCPIKEEKGSPLNAAPYGIESMSQDTEVRSRVVGGSLRGAQAASPAKGEPSLPEKDED
HALSYWKPFLVNMCVATVLTAGAYLCYRFLFNSNT

> <PDB ID(s) of Target Chain>
1BZJ,1G7G,1GFY,1JF7,1KAK,1KAV,1LQF,1NL9,1NNY,1NO6,1NZ7,1OEM,1OEO,1OES,1OET,1OEU,1OEV,1ONY,1ONZ,1PH0,1PXH,1PYN,1Q1M,1Q6J,1Q6M,1Q6N,1Q6P,1Q6S,1Q6T,1QXK,1SUG,1T48,1T49,1T4J,1WAX,1XBO,2AZR,2B07,2BGD,2BGE,
2CM2,2CM3,2CM7,2CM8,2CMA,2CMB,2CMC,2CNE,2CNF,2CNG,2CNH,2CNI,2F6T,2F6V,2F6W,2F6Y,2F6Z,2F70,2F71,2FJN,2H4G,2H4K,2HB1,2HNP,2HNQ,2QBP,2QBQ,2QBR,2QBS,2VEU,2VEV,2VEW,2VEX,2VEY,2ZMM,2ZN7,3A5J,3CWE,3D9C,3EAX,
3EB1,3EU0,3I7Z,3I80,3SME,4BJO,4I8N,4QBW,4Y14,5K9V,5K9W,5KA0,5KA1,5T19,6B90,6NTP,6W30,7KEY,7KLX,7LFO,7MN9,7MNA,8DU7,8G65,8G67,8G68,8G69,8G6A,8SKL

> <UniProt (SwissProt) Recommended Name of Target Chain>
Tyrosine-protein phosphatase non-receptor type 1

> <UniProt (SwissProt) Entry Name of Target Chain>
PTN1_HUMAN

> <UniProt (SwissProt) Primary ID of Target Chain>
P18031

> <UniProt (SwissProt) Secondary ID(s) of Target Chain>
Q5TGD8 Q9BQV9 Q9NQQ4

$$$$
Molecule
  SciTegic10242319433D

 61 64  0  0  0  0            999 V2000
   -3.8734  -20.0721    0.1169 C   0  0
   -4.8413  -20.7908    1.0814 C   0  0
   -4.4530  -20.2742   -1.3075 C   0  0
   -2.4986  -22.1336    0.3010 C   0  0
   -1.3585  -22.7917    0.2992 C   0  0
   -2.5194  -20.7404    0.1446 C   0  0
   -1.3578  -20.0807    0.0122 C   0  0
   -1.3580  -18.5575   -0.1654 C   0  0
   -2.7522  -18.0062   -0.5476 C   0  0
   -3.7656  -18.5808    0.4222 C   0  0
   -0.0405  -20.8889    0.0252 C   0  0
   -0.0919  -22.2234    0.1344 C   0  0
    1.1693  -23.1545    0.0854 C   0  0
    2.3998  -22.5591   -0.0316 C   0  0
    2.4492  -21.0439   -0.1072 C   0  0
    1.2580  -20.2518   -0.1115 C   0  0
    1.3812  -19.0267   -0.2023 O   0  0
    3.5121  -20.4262   -0.2060 O   0  0
    3.8110  -23.3650   -0.1279 C   0  0
    3.9708  -24.8484    0.2631 C   0  0
    5.1381  -22.5940    0.0812 C   0  0
    1.0409  -25.0635    0.1375 S   0  0
   -0.4931  -26.0903    0.0195 C   0  0
   -1.6583  -25.5518   -0.2569 C   0  0
   -2.8677  -26.2667   -0.2906 C   0  0
   -2.8948  -27.5617   -0.0570 C   0  0
   -1.6100  -28.2574    0.2127 C   0  0
   -0.4642  -27.5551    0.2540 C   0  0
   -4.1448  -28.2519   -0.0504 N   0  0
   -5.3517  -27.6252   -0.0509 C   0  0
   -6.6018  -28.4465   -0.0455 C   0  0
   -5.4695  -26.3909   -0.0303 O   0  0
   -5.8142  -20.3003    1.0530 H   0  0
   -4.4429  -20.7483    2.0951 H   0  0
   -4.9509  -21.8320    0.7779 H   0  0
   -5.4346  -19.8047   -1.3709 H   0  0
   -4.5468  -21.3403   -1.5143 H   0  0
   -3.7855  -19.8198   -2.0397 H   0  0
   -3.4354  -22.6769    0.4253 H   0  0
   -1.4060  -23.8718    0.4381 H   0  0
   -1.0446  -18.0964    0.7712 H   0  0
   -0.6513  -18.2974   -0.9534 H   0  0
   -2.7509  -16.9183   -0.4796 H   0  0
   -3.0024  -18.3068   -1.5650 H   0  0
   -3.4291  -18.4316    1.4482 H   0  0
   -4.7332  -18.0987    0.2829 H   0  0
    3.8589  -23.4776   -1.2110 H   0  0
    5.0054  -25.1555    0.1106 H   0  0
    3.3156  -25.4607   -0.3566 H   0  0
    3.7045  -24.9790    1.3120 H   0  0
    5.9779  -23.2818   -0.0169 H   0  0
    5.1477  -22.1494    1.0764 H   0  0
    5.2240  -21.8074   -0.6685 H   0  0
   -1.6895  -24.4840   -0.4738 H   0  0
   -3.7964  -25.7414   -0.5133 H   0  0
   -1.5963  -29.3349    0.3767 H   0  0
    0.4805  -28.0589    0.4585 H   0  0
   -4.1311  -29.3218   -0.0447 H   0  0
   -7.4700  -27.7876   -0.0467 H   0  0
   -6.6223  -29.0720    0.8470 H   0  0
   -6.6253  -29.0793   -0.9327 H   0  0
 13 14  2  0
 14 15  1  0
 15 16  1  0
 16 17  2  0
  4  5  2  0
 15 18  2  0
  6  1  1  0
 14 19  1  0
  7  8  1  0
 19 20  1  0
  8  9  1  0
 19 21  1  0
  9 10  1  0
 13 22  1  0
 10  1  1  0
 22 23  1  0
 11 12  2  0
 23 24  2  0
  5 12  1  0
 24 25  1  0
 11  7  1  0
 25 26  2  0
  6  7  2  0
 26 27  1  0
  1  3  1  0
 27 28  2  0
 28 23  1  0
  1  2  1  0
 26 29  1  0
  6  4  1  0
 29 30  1  0
 11 16  1  0
 30 31  1  0
 12 13  1  0
 30 32  2  0
  2 33  1  0
  2 34  1  0
  2 35  1  0
  3 36  1  0
  3 37  1  0
  3 38  1  0
  4 39  1  0
  5 40  1  0
  8 41  1  0
  8 42  1  0
  9 43  1  0
  9 44  1  0
 10 45  1  0
 10 46  1  0
 19 47  1  0
 20 48  1  0
 20 49  1  0
 20 50  1  0
 21 51  1  0
 21 52  1  0
 21 53  1  0
 24 54  1  0
 25 55  1  0
 27 56  1  0
 28 57  1  0
 29 58  1  0
 31 59  1  0
 31 60  1  0
 31 61  1  0
M  END
> <Name>
Molecule

> <Clean Energy>
51.2441

> <From>
www.bindingDB.org

> <BindingDB Reactant_set_id>
50335353

> <Ligand InChI>
InChI=1S/C27H29NO3S/c1-15(2)22-24(30)25(31)23-19-7-6-14-27(4,5)21(19)13-12-20(23)26(22)32-18-10-8-17(9-11-18)28-16(3)29/h8-13,15H,6-7,14H2,1-5H3,(H,28,29)

> <Ligand InChI Key>
FCEPCEYXXOGTDK-UHFFFAOYSA-N

> <BindingDB MonomerID>
50181025

> <BindingDB Ligand Name>
CHEMBL208488::N-(4-(2-isopropyl-8,8-dimethyl-3,4-dioxo-3,4,5,6,7,8-hexahydrophenanthren-1-ylthio)phenyl)acetamide

> <Target Name>
Tyrosine-protein phosphatase non-receptor type 1

> <Target Source Organism According to Curator or DataSource>
Homo sapiens

> <IC50 (nM)>
9050

> <Curation/DataSource>
ChEMBL

> <Article DOI>
10.1016/j.bmcl.2005.12.080

> <BindingDB Entry DOI>
10.7270/Q270811P

> <PMID>
16434190

> <Authors>
Huang, W; Li, J; Zhang, W; Zhou, Y; Xie, C; Luo, Y; Li, Y; Wang, J; Li, J; Lu, W

> <Institution>
Graduate School of Chinese Academy of Sciences

> <Link to Ligand in BindingDB>
http://www.bindingdb.org/bind/chemsearch/marvin/MolStructure.jsp?monomerid=50181025

> <Link to Ligand-Target Pair in BindingDB>
http://www.bindingdb.org/jsp/dbsearch/PrimarySearch_ki.jsp?energyterm=kJ/mole&tag=pol&polymerid=2622&target=Tyrosine-protein+phosphatase+non-receptor+type+1&column=ki&startPg=0&Increment=50&submit=Sea
rch
http://www.bindingdb.org/jsp/dbsearch/PrimarySearch_ki.jsp?energyterm=kJ/mole&tag=r21&monomerid=50181025&enzyme=Tyrosine-protein+phosphatase+non-receptor+type+1&column=ki&startPg=0&Increment=50&submit
=Search

> <PubChem CID of Ligand>
44409856

> <PubChem SID of Ligand>
104065884

> <ChEMBL ID of Ligand>
CHEMBL208488

> <ZINC ID of Ligand>
ZINC36088370

> <Number of Protein Chains in Target (bigger than 1 implies a multichain complex)>
1

> <BindingDB Target Chain Sequence>
MEMEKEFEQIDKSGSWAAIYQDIRHEASDFPCRVAKLPKNKNRNRYRDVSPFDHSRIKLHQEDNDYINASLIKMEEAQRSYILTQGPLPNTCGHFWEMVWEQKSRGVVMLNRVMEKGSLKCAQYWPQKEEKEMIFEDTNLKLTLISEDIKSYYTVRQLELENLTTQETREILHFHYTTWPDFGVPESPASFLNFLFKVRE
SGSLSPEHGPVVVHCSAGIGRSGTFCLADTCLLLMDKRKDPSSVDIKKVLLEMRKFRMGLIQTADQLRFSYLAVIEGAKFIMGDSSVQDQWKELSHEDLEPPPEHIPPPPRPPKRILEPHNGKCREFFPNHQWVKEETQEDKDCPIKEEKGSPLNAAPYGIESMSQDTEVRSRVVGGSLRGAQAASPAKGEPSLPEKDED
HALSYWKPFLVNMCVATVLTAGAYLCYRFLFNSNT

> <PDB ID(s) of Target Chain>
1BZJ,1G7G,1GFY,1JF7,1KAK,1KAV,1LQF,1NL9,1NNY,1NO6,1NZ7,1OEM,1OEO,1OES,1OET,1OEU,1OEV,1ONY,1ONZ,1PH0,1PXH,1PYN,1Q1M,1Q6J,1Q6M,1Q6N,1Q6P,1Q6S,1Q6T,1QXK,1SUG,1T48,1T49,1T4J,1WAX,1XBO,2AZR,2B07,2BGD,2BGE,
2CM2,2CM3,2CM7,2CM8,2CMA,2CMB,2CMC,2CNE,2CNF,2CNG,2CNH,2CNI,2F6T,2F6V,2F6W,2F6Y,2F6Z,2F70,2F71,2FJN,2H4G,2H4K,2HB1,2HNP,2HNQ,2QBP,2QBQ,2QBR,2QBS,2VEU,2VEV,2VEW,2VEX,2VEY,2ZMM,2ZN7,3A5J,3CWE,3D9C,3EAX,
3EB1,3EU0,3I7Z,3I80,3SME,4BJO,4I8N,4QBW,4Y14,5K9V,5K9W,5KA0,5KA1,5T19,6B90,6NTP,6W30,7KEY,7KLX,7LFO,7MN9,7MNA,8DU7,8G65,8G67,8G68,8G69,8G6A,8SKL

> <UniProt (SwissProt) Recommended Name of Target Chain>
Tyrosine-protein phosphatase non-receptor type 1

> <UniProt (SwissProt) Entry Name of Target Chain>
PTN1_HUMAN

> <UniProt (SwissProt) Primary ID of Target Chain>
P18031

> <UniProt (SwissProt) Secondary ID(s) of Target Chain>
Q5TGD8 Q9BQV9 Q9NQQ4

$$$$
Molecule
  SciTegic10242319433D

 31 33  0  0  0  0            999 V2000
   -3.0760    1.4275    0.0769 C   0  0
   -4.2991    0.7680    0.0254 C   0  0
   -4.3382   -0.6196   -0.0342 C   0  0
   -3.1552   -1.3488   -0.0391 C   0  0
   -1.9304   -0.6902    0.0120 C   0  0
   -1.8898    0.7019    0.0682 C   0  0
   -0.6797   -1.4597    0.0305 C   0  0
    0.6194   -0.7476    0.2102 C   0  0
    0.4874    0.7001   -0.2791 C   0  0  1  0  0  0
   -0.6870    1.3663    0.0986 O   0  0
    1.7701    1.4941   -0.1331 C   0  0
    2.9821    0.8129   -0.0806 C   0  0
    4.1772    1.5110    0.0464 C   0  0
    4.1640    2.8984    0.1216 C   0  0
    2.9552    3.5829    0.0696 C   0  0
    1.7586    2.8850   -0.0580 C   0  0
   -5.4850    1.4950    0.0309 O   0  0
   -3.2071   -2.7382   -0.0896 O   0  0
   -0.7055   -2.6949    0.0322 O   0  0
    0.6042    3.5630   -0.1088 F   0  0
   -3.0469    2.5161    0.1241 H   0  0
   -5.2970   -1.1364   -0.0772 H   0  0
    0.8906   -0.7498    1.2660 H   0  0
    1.3934   -1.2553   -0.3653 H   0  0
    0.3796    0.5922   -1.3584 H   0  0
    2.9944   -0.2754   -0.1393 H   0  0
    5.1232    0.9711    0.0869 H   0  0
    5.0995    3.4489    0.2211 H   0  0
    2.9449    4.6712    0.1290 H   0  0
   -5.5427    2.0650    0.9109 H   0  0
   -3.7299   -3.1000    0.7461 H   0  0
  1  2  4  0
  1  6  4  0
  2  3  4  0
  3  4  4  0
  4  5  4  0
  5  7  1  0
  6  5  4  0
  6 10  1  0
  7  8  1  0
  8  9  1  0
  9 10  1  0
  9 11  1  0
 11 12  4  0
 11 16  4  0
 12 13  4  0
 13 14  4  0
 14 15  4  0
 15 16  4  0
  2 17  1  0
  4 18  1  0
  7 19  2  0
 16 20  1  0
  1 21  1  0
  3 22  1  0
  8 23  1  0
  8 24  1  0
  9 25  1  0
 12 26  1  0
 13 27  1  0
 14 28  1  0
 15 29  1  0
 17 30  1  0
 18 31  1  0
M  END
> <Name>
Molecule

> <Clean Energy>
5.54649

> <From>
www.bindingDB.org

> <BindingDB Reactant_set_id>
424021

> <Ligand InChI>
InChI=1S/C15H11FO4/c16-10-4-2-1-3-9(10)13-7-12(19)15-11(18)5-8(17)6-14(15)20-13/h1-6,13,17-18H,7H2

> <Ligand InChI Key>
DMKHRYNHUXHZPS-UHFFFAOYSA-N

> <BindingDB MonomerID>
243049

> <BindingDB Ligand Name>
PTP inhibitor, 4a

> <Target Name>
Tyrosine-protein phosphatase non-receptor type 1

> <Target Source Organism According to Curator or DataSource>
Homo sapiens

> <IC50 (nM)>
9060

> <pH>
6.5

> <Temp C>
30

> <Curation/DataSource>
Curated from the literature by BindingDB

> <Article DOI>
10.3109/14756366.2012.723206

> <BindingDB Entry DOI>
10.7270/Q2668C3G

> <PMID>
23009604

> <PubChem AID>
aid1803325

> <Authors>
Sun, LP; Ma, WP; Gao, LX; Yang, LL; Quan, YC; Li, J; Piao, HR

> <Institution>
Yanbian University College of Pharmacy

> <Link to Ligand in BindingDB>
http://www.bindingdb.org/bind/chemsearch/marvin/MolStructure.jsp?monomerid=243049

> <Link to Ligand-Target Pair in BindingDB>
http://www.bindingdb.org/jsp/dbsearch/PrimarySearch_ki.jsp?energyterm=kJ/mole&tag=pol&polymerid=2622&target=Tyrosine-protein+phosphatase+non-receptor+type+1&column=ki&startPg=0&Increment=50&submit=Sea
rch
http://www.bindingdb.org/jsp/dbsearch/PrimarySearch_ki.jsp?energyterm=kJ/mole&tag=r21&monomerid=243049&enzyme=Tyrosine-protein+phosphatase+non-receptor+type+1&column=ki&startPg=0&Increment=50&submit=S
earch

> <PubChem CID of Ligand>
129625908

> <PubChem SID of Ligand>
341095186

> <Number of Protein Chains in Target (bigger than 1 implies a multichain complex)>
1

> <BindingDB Target Chain Sequence>
MEMEKEFEQIDKSGSWAAIYQDIRHEASDFPCRVAKLPKNKNRNRYRDVSPFDHSRIKLHQEDNDYINASLIKMEEAQRSYILTQGPLPNTCGHFWEMVWEQKSRGVVMLNRVMEKGSLKCAQYWPQKEEKEMIFEDTNLKLTLISEDIKSYYTVRQLELENLTTQETREILHFHYTTWPDFGVPESPASFLNFLFKVRE
SGSLSPEHGPVVVHCSAGIGRSGTFCLADTCLLLMDKRKDPSSVDIKKVLLEMRKFRMGLIQTADQLRFSYLAVIEGAKFIMGDSSVQDQWKELSHEDLEPPPEHIPPPPRPPKRILEPHNGKCREFFPNHQWVKEETQEDKDCPIKEEKGSPLNAAPYGIESMSQDTEVRSRVVGGSLRGAQAASPAKGEPSLPEKDED
HALSYWKPFLVNMCVATVLTAGAYLCYRFLFNSNT

> <PDB ID(s) of Target Chain>
1BZJ,1G7G,1GFY,1JF7,1KAK,1KAV,1LQF,1NL9,1NNY,1NO6,1NZ7,1OEM,1OEO,1OES,1OET,1OEU,1OEV,1ONY,1ONZ,1PH0,1PXH,1PYN,1Q1M,1Q6J,1Q6M,1Q6N,1Q6P,1Q6S,1Q6T,1QXK,1SUG,1T48,1T49,1T4J,1WAX,1XBO,2AZR,2B07,2BGD,2BGE,
2CM2,2CM3,2CM7,2CM8,2CMA,2CMB,2CMC,2CNE,2CNF,2CNG,2CNH,2CNI,2F6T,2F6V,2F6W,2F6Y,2F6Z,2F70,2F71,2FJN,2H4G,2H4K,2HB1,2HNP,2HNQ,2QBP,2QBQ,2QBR,2QBS,2VEU,2VEV,2VEW,2VEX,2VEY,2ZMM,2ZN7,3A5J,3CWE,3D9C,3EAX,
3EB1,3EU0,3I7Z,3I80,3SME,4BJO,4I8N,4QBW,4Y14,5K9V,5K9W,5KA0,5KA1,5T19,6B90,6NTP,6W30,7KEY,7KLX,7LFO,7MN9,7MNA,8DU7,8G65,8G67,8G68,8G69,8G6A,8SKL

> <UniProt (SwissProt) Recommended Name of Target Chain>
Tyrosine-protein phosphatase non-receptor type 1

> <UniProt (SwissProt) Entry Name of Target Chain>
PTN1_HUMAN

> <UniProt (SwissProt) Primary ID of Target Chain>
P18031

> <UniProt (SwissProt) Secondary ID(s) of Target Chain>
Q5TGD8 Q9BQV9 Q9NQQ4

$$$$
Molecule
  SciTegic10242319433D

 48 51  0  0  0  0            999 V2000
   -2.2057  -13.0566    0.0000 O   0  0
   -0.9468  -13.8259    0.0000 C   0  0
   -1.0695  -15.2136    0.0000 C   0  0
    0.0482  -16.0428    0.0001 C   0  0
    1.3287  -15.4982    0.0001 C   0  0
    1.4664  -14.1139    0.0001 C   0  0
    0.3404  -13.2876    0.0001 C   0  0
    2.5302  -16.4078    0.0002 C   0  0
    2.4898  -18.0272    0.0002 S   0  0
    4.1002  -18.2159    0.0002 C   0  0
    4.6577  -16.9998    0.0002 N   0  0
    3.8129  -16.0260    0.0002 N   0  0
    4.7907  -19.4854    0.0002 N   0  0
    6.1328  -19.5846   -0.0001 C   0  0
    6.8074  -20.9231    0.0000 C   0  0
    6.8263  -18.5617   -0.0004 O   0  0
    6.0647  -22.1005    0.0005 C   0  0
    6.7079  -23.3370    0.0006 C   0  0
    8.0991  -23.4074    0.0002 C   0  0
    8.8400  -22.2309   -0.0003 C   0  0
    8.1975  -20.9962   -0.0004 C   0  0
   -2.3126  -11.5932   -0.0001 C   0  0
   -1.2349  -10.7095   -0.0002 C   0  0
   -1.4393   -9.3323   -0.0002 C   0  0
   -2.7294   -8.8157   -0.0001 C   0  0
   -3.8131   -9.6844    0.0000 C   0  0
   -3.6002  -11.0594    0.0000 C   0  0
   -2.9356   -7.4281   -0.0001 N   0  3
   -4.0286   -6.9937    0.0000 O   0  0
   -1.8977   -6.6042   -0.0003 O   0  5
    8.7735  -24.6506    0.0003 O   0  0
    7.8559  -25.7558    0.0009 C   0  0
   -2.0638  -15.6602    0.0000 H   0  0
   -0.0802  -17.1252    0.0000 H   0  0
    2.4620  -13.6701    0.0002 H   0  0
    0.4692  -12.2052    0.0001 H   0  0
    4.2104  -20.3843    0.0005 H   0  0
    4.9756  -22.0552    0.0008 H   0  0
    6.1189  -24.2542    0.0010 H   0  0
    9.9291  -22.2757   -0.0007 H   0  0
    8.7873  -20.0795   -0.0008 H   0  0
   -0.2180  -11.1020   -0.0002 H   0  0
   -0.5840   -8.6566   -0.0003 H   0  0
   -4.8290   -9.2895    0.0001 H   0  0
   -4.4574  -11.7326    0.0001 H   0  0
    8.4139  -26.6920    0.0009 H   0  0
    7.2279  -25.7078   -0.8888 H   0  0
    7.2285  -25.7073    0.8909 H   0  0
  1  2  1  0
  2  3  4  0
  3  4  4  0
  4  5  4  0
  5  6  4  0
  6  7  4  0
  7  2  4  0
  8  9  4  0
  9 10  4  0
 10 11  4  0
 11 12  4  0
 12  8  4  0
  5  8  1  0
 10 13  1  0
 13 14  1  0
 14 15  1  0
 14 16  2  0
 15 17  4  0
 17 18  4  0
 18 19  4  0
 19 20  4  0
 20 21  4  0
 21 15  4  0
  1 22  1  0
 22 23  4  0
 23 24  4  0
 24 25  4  0
 25 26  4  0
 26 27  4  0
 27 22  4  0
 28 29  2  0
 28 30  1  0
 25 28  1  0
 19 31  1  0
 31 32  1  0
  3 33  1  0
  4 34  1  0
  6 35  1  0
  7 36  1  0
 13 37  1  0
 17 38  1  0
 18 39  1  0
 20 40  1  0
 21 41  1  0
 23 42  1  0
 24 43  1  0
 26 44  1  0
 27 45  1  0
 32 46  1  0
 32 47  1  0
 32 48  1  0
M  CHG  2  28   1  30  -1
M  END
> <Name>
Molecule

> <Clean Energy>
31.3809

> <From>
www.bindingDB.org

> <BindingDB Reactant_set_id>
50289198

> <Ligand InChI>
InChI=1S/C22H16N4O5S/c1-30-17-8-2-14(3-9-17)20(27)23-22-25-24-21(32-22)15-4-10-18(11-5-15)31-19-12-6-16(7-13-19)26(28)29/h2-13H,1H3,(H,23,25,27)

> <Ligand InChI Key>
RNDWWZYDJMUEMW-UHFFFAOYSA-N

> <BindingDB MonomerID>
50057655

> <BindingDB Ligand Name>
CHEMBL3322829

> <Target Name>
Tyrosine-protein phosphatase non-receptor type 1

> <Target Source Organism According to Curator or DataSource>
Homo sapiens

> <IC50 (nM)>
9070

> <Curation/DataSource>
ChEMBL

> <Article DOI>
10.1016/j.bmcl.2014.07.055

> <BindingDB Entry DOI>
10.7270/Q2MP54XR

> <PMID>
25124112

> <Authors>
Li, Y; Yu, Y; Jin, K; Gao, L; Luo, T; Sheng, L; Shao, X; Li, J

> <Institution>
Liaoning Normal University

> <Link to Ligand in BindingDB>
http://www.bindingdb.org/bind/chemsearch/marvin/MolStructure.jsp?monomerid=50057655

> <Link to Ligand-Target Pair in BindingDB>
http://www.bindingdb.org/jsp/dbsearch/PrimarySearch_ki.jsp?energyterm=kJ/mole&tag=pol&polymerid=2622&target=Tyrosine-protein+phosphatase+non-receptor+type+1&column=ki&startPg=0&Increment=50&submit=Sea
rch
http://www.bindingdb.org/jsp/dbsearch/PrimarySearch_ki.jsp?energyterm=kJ/mole&tag=r21&monomerid=50057655&enzyme=Tyrosine-protein+phosphatase+non-receptor+type+1&column=ki&startPg=0&Increment=50&submit
=Search

> <PubChem CID of Ligand>
118710330

> <PubChem SID of Ligand>
313070344

> <ChEMBL ID of Ligand>
CHEMBL3322829

> <Number of Protein Chains in Target (bigger than 1 implies a multichain complex)>
1

> <BindingDB Target Chain Sequence>
MEMEKEFEQIDKSGSWAAIYQDIRHEASDFPCRVAKLPKNKNRNRYRDVSPFDHSRIKLHQEDNDYINASLIKMEEAQRSYILTQGPLPNTCGHFWEMVWEQKSRGVVMLNRVMEKGSLKCAQYWPQKEEKEMIFEDTNLKLTLISEDIKSYYTVRQLELENLTTQETREILHFHYTTWPDFGVPESPASFLNFLFKVRE
SGSLSPEHGPVVVHCSAGIGRSGTFCLADTCLLLMDKRKDPSSVDIKKVLLEMRKFRMGLIQTADQLRFSYLAVIEGAKFIMGDSSVQDQWKELSHEDLEPPPEHIPPPPRPPKRILEPHNGKCREFFPNHQWVKEETQEDKDCPIKEEKGSPLNAAPYGIESMSQDTEVRSRVVGGSLRGAQAASPAKGEPSLPEKDED
HALSYWKPFLVNMCVATVLTAGAYLCYRFLFNSNT

> <PDB ID(s) of Target Chain>
1BZJ,1G7G,1GFY,1JF7,1KAK,1KAV,1LQF,1NL9,1NNY,1NO6,1NZ7,1OEM,1OEO,1OES,1OET,1OEU,1OEV,1ONY,1ONZ,1PH0,1PXH,1PYN,1Q1M,1Q6J,1Q6M,1Q6N,1Q6P,1Q6S,1Q6T,1QXK,1SUG,1T48,1T49,1T4J,1WAX,1XBO,2AZR,2B07,2BGD,2BGE,
2CM2,2CM3,2CM7,2CM8,2CMA,2CMB,2CMC,2CNE,2CNF,2CNG,2CNH,2CNI,2F6T,2F6V,2F6W,2F6Y,2F6Z,2F70,2F71,2FJN,2H4G,2H4K,2HB1,2HNP,2HNQ,2QBP,2QBQ,2QBR,2QBS,2VEU,2VEV,2VEW,2VEX,2VEY,2ZMM,2ZN7,3A5J,3CWE,3D9C,3EAX,
3EB1,3EU0,3I7Z,3I80,3SME,4BJO,4I8N,4QBW,4Y14,5K9V,5K9W,5KA0,5KA1,5T19,6B90,6NTP,6W30,7KEY,7KLX,7LFO,7MN9,7MNA,8DU7,8G65,8G67,8G68,8G69,8G6A,8SKL

> <UniProt (SwissProt) Recommended Name of Target Chain>
Tyrosine-protein phosphatase non-receptor type 1

> <UniProt (SwissProt) Entry Name of Target Chain>
PTN1_HUMAN

> <UniProt (SwissProt) Primary ID of Target Chain>
P18031

> <UniProt (SwissProt) Secondary ID(s) of Target Chain>
Q5TGD8 Q9BQV9 Q9NQQ4

$$$$
Molecule
  SciTegic10242319433D

 60 64  0  0  0  0            999 V2000
   25.6190  -11.0472    0.0002 C   0  0
   24.1532  -11.5731   -0.0001 C   0  0
   26.8565  -11.9177    0.0000 N   0  0
   28.5418  -14.1009    0.0000 S   0  0
   27.0215  -13.3464    0.0002 C   0  0
   26.0884  -14.2288    0.0005 N   0  0
   26.5735  -15.5962    0.0006 C   0  0
   28.0160  -15.6720    0.0004 C   0  0
   25.8336  -16.5854    0.0009 O   0  0
   28.7212  -16.8088    0.0005 C   0  0
   30.1956  -16.8955    0.0003 C   0  0
   30.7614  -18.1018    0.0004 C   0  0
   32.2179  -18.2344    0.0003 C   0  0
   32.9850  -17.1466    0.0000 C   0  0
   32.3711  -15.8194   -0.0001 C   0  0
   31.0456  -15.7003    0.0000 C   0  0
   34.3689  -17.2721   -0.0001 O   0  0
   20.6794   -9.9767    0.0001 C   0  0
   19.4468  -10.7083    0.0000 N   0  0
   16.7313  -10.8427    0.0001 S   0  0
   18.2221  -10.0498   -0.0001 C   0  0
   18.0796   -8.7696   -0.0003 N   0  0
   16.6728   -8.3654   -0.0004 C   0  0
   15.7621   -9.5061   -0.0002 C   0  0
   16.2971   -7.1881   -0.0006 O   0  0
   14.4247   -9.4348   -0.0001 C   0  0
   13.5102  -10.6079    0.0001 C   0  0
   12.1946  -10.3944    0.0000 C   0  0
   11.2607  -11.5244    0.0003 C   0  0
   11.7241  -12.7726    0.0006 C   0  0
   13.1651  -13.0153    0.0007 C   0  0
   14.0126  -11.9888    0.0005 C   0  0
   10.8384  -13.8449    0.0008 O   0  0
   21.7915  -10.9745   -0.0001 C   0  0
   21.4636  -12.3942   -0.0005 C   0  0
   22.4367  -13.2955   -0.0007 C   0  0
   23.8252  -12.8607   -0.0005 C   0  0
   23.0651  -10.5784    0.0001 C   0  0
   25.7033  -10.4234   -0.8897 H   0  0
   25.7032  -10.4241    0.8906 H   0  0
   27.7762  -11.3709   -0.0004 H   0  0
   28.1635  -17.7453    0.0007 H   0  0
   30.1356  -18.9942    0.0006 H   0  0
   32.6751  -19.2239    0.0004 H   0  0
   32.9988  -14.9283   -0.0004 H   0  0
   30.5898  -14.7101   -0.0001 H   0  0
   34.6734  -17.7965    0.8571 H   0  0
   20.7408   -9.3505   -0.8900 H   0  0
   20.7408   -9.3507    0.8903 H   0  0
   19.4695  -11.7781    0.0001 H   0  0
   13.9726   -8.4430   -0.0003 H   0  0
   11.8110   -9.3741   -0.0002 H   0  0
   10.1860  -11.3425    0.0002 H   0  0
   13.5459  -14.0366    0.0010 H   0  0
   15.0868  -12.1738    0.0006 H   0  0
   10.2337  -13.7998    0.8580 H   0  0
   20.4217  -12.7146   -0.0007 H   0  0
   22.1969  -14.3588   -0.0011 H   0  0
   24.6164  -13.6104   -0.0007 H   0  0
   23.3024   -9.5145    0.0005 H   0  0
  1  2  1  0
  1  3  1  0
  4  5  1  0
  5  6  2  0
  6  7  1  0
  7  8  1  0
  4  8  1  0
  7  9  2  0
 10 11  1  0
 11 12  2  0
 12 13  1  0
 13 14  2  0
 14 15  1  0
 15 16  2  0
 11 16  1  0
 14 17  1  0
  8 10  2  0
  3  5  1  0
 18 19  1  0
 20 21  1  0
 21 22  2  0
 22 23  1  0
 23 24  1  0
 20 24  1  0
 23 25  2  0
 26 27  1  0
 27 28  2  0
 28 29  1  0
 29 30  2  0
 30 31  1  0
 31 32  2  0
 27 32  1  0
 30 33  1  0
 24 26  2  0
 19 21  1  0
 18 34  1  0
 34 35  1  0
 34 38  2  0
 35 36  2  0
 36 37  1  0
 37  2  2  0
  2 38  1  0
  1 39  1  0
  1 40  1  0
  3 41  1  0
 10 42  1  0
 12 43  1  0
 13 44  1  0
 15 45  1  0
 16 46  1  0
 17 47  1  0
 18 48  1  0
 18 49  1  0
 19 50  1  0
 26 51  1  0
 28 52  1  0
 29 53  1  0
 31 54  1  0
 32 55  1  0
 33 56  1  0
 35 57  1  0
 36 58  1  0
 37 59  1  0
 38 60  1  0
M  END
> <Name>
Molecule

> <Clean Energy>
57.279

> <From>
www.bindingDB.org

> <BindingDB Reactant_set_id>
50981963

> <Ligand InChI>
InChI=1S/C28H22N4O4S2/c33-21-8-4-17(5-9-21)13-23-25(35)31-27(37-23)29-15-19-2-1-3-20(12-19)16-30-28-32-26(36)24(38-28)14-18-6-10-22(34)11-7-18/h1-14,33-34H,15-16H2,(H,29,31,35)(H,30,32,36)

> <Ligand InChI Key>
NYAAFANUYXDYLA-UHFFFAOYSA-N

> <BindingDB MonomerID>
50402655

> <BindingDB Ligand Name>
CHEMBL2207336

> <Target Name>
Tyrosine-protein phosphatase non-receptor type 1

> <Target Source Organism According to Curator or DataSource>
Homo sapiens

> <IC50 (nM)>
9100

> <Curation/DataSource>
ChEMBL

> <Article DOI>
10.1016/j.bmcl.2012.10.072

> <BindingDB Entry DOI>
10.7270/Q2J67J38

> <PMID>
23141909

> <Authors>
Sarkis, M; Tran, DN; Kolb, S; Miteva, MA; Villoutreix, BO; Garbay, C; Braud, E

> <Institution>
University of Paris

> <Link to Ligand in BindingDB>
http://www.bindingdb.org/bind/chemsearch/marvin/MolStructure.jsp?monomerid=50402655

> <Link to Ligand-Target Pair in BindingDB>
http://www.bindingdb.org/jsp/dbsearch/PrimarySearch_ki.jsp?energyterm=kJ/mole&tag=pol&polymerid=2622&target=Tyrosine-protein+phosphatase+non-receptor+type+1&column=ki&startPg=0&Increment=50&submit=Sea
rch
http://www.bindingdb.org/jsp/dbsearch/PrimarySearch_ki.jsp?energyterm=kJ/mole&tag=r21&monomerid=50402655&enzyme=Tyrosine-protein+phosphatase+non-receptor+type+1&column=ki&startPg=0&Increment=50&submit
=Search

> <PubChem CID of Ligand>
71452505

> <PubChem SID of Ligand>
163351679

> <ChEMBL ID of Ligand>
CHEMBL2207336

> <ZINC ID of Ligand>
ZINC95561904

> <Number of Protein Chains in Target (bigger than 1 implies a multichain complex)>
1

> <BindingDB Target Chain Sequence>
MEMEKEFEQIDKSGSWAAIYQDIRHEASDFPCRVAKLPKNKNRNRYRDVSPFDHSRIKLHQEDNDYINASLIKMEEAQRSYILTQGPLPNTCGHFWEMVWEQKSRGVVMLNRVMEKGSLKCAQYWPQKEEKEMIFEDTNLKLTLISEDIKSYYTVRQLELENLTTQETREILHFHYTTWPDFGVPESPASFLNFLFKVRE
SGSLSPEHGPVVVHCSAGIGRSGTFCLADTCLLLMDKRKDPSSVDIKKVLLEMRKFRMGLIQTADQLRFSYLAVIEGAKFIMGDSSVQDQWKELSHEDLEPPPEHIPPPPRPPKRILEPHNGKCREFFPNHQWVKEETQEDKDCPIKEEKGSPLNAAPYGIESMSQDTEVRSRVVGGSLRGAQAASPAKGEPSLPEKDED
HALSYWKPFLVNMCVATVLTAGAYLCYRFLFNSNT

> <PDB ID(s) of Target Chain>
1BZJ,1G7G,1GFY,1JF7,1KAK,1KAV,1LQF,1NL9,1NNY,1NO6,1NZ7,1OEM,1OEO,1OES,1OET,1OEU,1OEV,1ONY,1ONZ,1PH0,1PXH,1PYN,1Q1M,1Q6J,1Q6M,1Q6N,1Q6P,1Q6S,1Q6T,1QXK,1SUG,1T48,1T49,1T4J,1WAX,1XBO,2AZR,2B07,2BGD,2BGE,
2CM2,2CM3,2CM7,2CM8,2CMA,2CMB,2CMC,2CNE,2CNF,2CNG,2CNH,2CNI,2F6T,2F6V,2F6W,2F6Y,2F6Z,2F70,2F71,2FJN,2H4G,2H4K,2HB1,2HNP,2HNQ,2QBP,2QBQ,2QBR,2QBS,2VEU,2VEV,2VEW,2VEX,2VEY,2ZMM,2ZN7,3A5J,3CWE,3D9C,3EAX,
3EB1,3EU0,3I7Z,3I80,3SME,4BJO,4I8N,4QBW,4Y14,5K9V,5K9W,5KA0,5KA1,5T19,6B90,6NTP,6W30,7KEY,7KLX,7LFO,7MN9,7MNA,8DU7,8G65,8G67,8G68,8G69,8G6A,8SKL

> <UniProt (SwissProt) Recommended Name of Target Chain>
Tyrosine-protein phosphatase non-receptor type 1

> <UniProt (SwissProt) Entry Name of Target Chain>
PTN1_HUMAN

> <UniProt (SwissProt) Primary ID of Target Chain>
P18031

> <UniProt (SwissProt) Secondary ID(s) of Target Chain>
Q5TGD8 Q9BQV9 Q9NQQ4

$$$$
Molecule
  SciTegic10242319433D

 39 41  0  0  0  0            999 V2000
    4.2600   -5.6592    0.0090 C   0  0
    2.8016   -5.4339    0.0079 C   0  0
    1.9797   -6.4791    0.0180 C   0  0
    2.5319   -7.8456    0.0289 C   0  0
    3.8470   -8.0451    0.0285 C   0  0
    4.7525   -6.8994    0.0181 C   0  0
   -0.3148   -7.4405    0.0154 C   0  0
    0.5184   -6.3320    0.0114 C   0  0
   -0.1793   -5.2638   -0.0067 N   0  0
   -1.4866   -5.6281   -0.0157 O   0  0
   -1.5497   -7.0129   -0.0084 C   0  0
   -5.3256   -7.6610    0.0215 C   0  0
   -5.5160   -8.9779    0.0211 C   0  0
   -4.3788   -9.8787   -0.0034 C   0  0
   -3.1114   -9.4562   -0.0277 C   0  0
   -2.8771   -7.8480   -0.0169 C   0  0
   -3.9735   -7.0920    0.0060 C   0  0
   -6.8166   -9.5279    0.0352 O   0  0
   -2.1629  -10.5943   -0.0701 O   0  0
   -7.8290   -8.5104    0.0492 C   0  0
   -0.8054  -10.3278   -0.1785 C   0  0
    0.1228  -11.4688   -0.0331 C   0  0
    1.4942  -11.2131   -0.0577 O   0  0
   -0.2980  -12.6134    0.1472 O   0  0
    4.9395   -4.8069    0.0023 H   0  0
    2.4017   -4.4199   -0.0012 H   0  0
    1.8561   -8.7008    0.0375 H   0  0
    4.2470   -9.0590    0.0359 H   0  0
    5.8310   -7.0574    0.0178 H   0  0
    0.0034   -8.4829    0.0350 H   0  0
   -6.1879   -6.9944    0.0336 H   0  0
   -4.5675  -10.9522   -0.0020 H   0  0
   -3.8617   -6.0078    0.0133 H   0  0
   -8.8139   -8.9772    0.0597 H   0  0
   -7.7319   -7.8882   -0.8406 H   0  0
   -7.7111   -7.8920    0.9390 H   0  0
   -0.6352   -9.8906   -1.1624 H   0  0
   -0.5522   -9.5995    0.5920 H   0  0
    1.7519  -10.7711   -0.9746 H   0  0
  6  1  2  0
 12 13  2  0
 10 11  1  0
 13 14  1  0
  1  2  1  0
 14 15  2  0
  3  4  1  0
 15 16  1  0
  8  9  2  0
 16 17  2  0
 17 12  1  0
 13 18  1  0
  4  5  2  0
 15 19  1  0
 16 11  1  0
  2  3  2  0
 18 20  1  0
  8  3  1  0
  7  8  1  0
 19 21  1  0
  9 10  1  0
 21 22  1  0
 11  7  2  0
 22 23  1  0
  5  6  1  0
 22 24  2  0
  1 25  1  0
  2 26  1  0
  4 27  1  0
  5 28  1  0
  6 29  1  0
  7 30  1  0
 12 31  1  0
 14 32  1  0
 17 33  1  0
 20 34  1  0
 20 35  1  0
 20 36  1  0
 21 37  1  0
 21 38  1  0
 23 39  1  0
M  END
> <Name>
Molecule

> <Clean Energy>
41.0756

> <From>
www.bindingDB.org

> <BindingDB Reactant_set_id>
50644744

> <Ligand InChI>
InChI=1S/C18H15NO5/c1-22-13-7-8-14(16(9-13)23-11-18(20)21)17-10-15(19-24-17)12-5-3-2-4-6-12/h2-10H,11H2,1H3,(H,20,21)

> <Ligand InChI Key>
JAOUSQBTKLRYSB-UHFFFAOYSA-N

> <BindingDB MonomerID>
50346160

> <BindingDB Ligand Name>
2-(5-methoxy-2-(3-phenylisoxazol-5-yl)phenoxy)acetic acid::CHEMBL1783786

> <Target Name>
Tyrosine-protein phosphatase non-receptor type 1

> <Target Source Organism According to Curator or DataSource>
Homo sapiens

> <IC50 (nM)>
9100

> <Curation/DataSource>
ChEMBL

> <Article DOI>
10.1016/j.bmc.2009.05.033

> <BindingDB Entry DOI>
10.7270/Q2J966QV

> <PMID>
19500993

> <Authors>
Kumar, A; Maurya, RA; Sharma, S; Ahmad, P; Singh, AB; Tamrakar, AK; Srivastava, AK

> <Institution>
Central Drug Research Institute

> <Link to Ligand in BindingDB>
http://www.bindingdb.org/bind/chemsearch/marvin/MolStructure.jsp?monomerid=50346160

> <Link to Ligand-Target Pair in BindingDB>
http://www.bindingdb.org/jsp/dbsearch/PrimarySearch_ki.jsp?energyterm=kJ/mole&tag=pol&polymerid=2622&target=Tyrosine-protein+phosphatase+non-receptor+type+1&column=ki&startPg=0&Increment=50&submit=Sea
rch
http://www.bindingdb.org/jsp/dbsearch/PrimarySearch_ki.jsp?energyterm=kJ/mole&tag=r21&monomerid=50346160&enzyme=Tyrosine-protein+phosphatase+non-receptor+type+1&column=ki&startPg=0&Increment=50&submit
=Search

> <PubChem CID of Ligand>
54584397

> <PubChem SID of Ligand>
131349091

> <ChEMBL ID of Ligand>
CHEMBL1783786

> <ZINC ID of Ligand>
ZINC71280609

> <Number of Protein Chains in Target (bigger than 1 implies a multichain complex)>
1

> <BindingDB Target Chain Sequence>
MEMEKEFEQIDKSGSWAAIYQDIRHEASDFPCRVAKLPKNKNRNRYRDVSPFDHSRIKLHQEDNDYINASLIKMEEAQRSYILTQGPLPNTCGHFWEMVWEQKSRGVVMLNRVMEKGSLKCAQYWPQKEEKEMIFEDTNLKLTLISEDIKSYYTVRQLELENLTTQETREILHFHYTTWPDFGVPESPASFLNFLFKVRE
SGSLSPEHGPVVVHCSAGIGRSGTFCLADTCLLLMDKRKDPSSVDIKKVLLEMRKFRMGLIQTADQLRFSYLAVIEGAKFIMGDSSVQDQWKELSHEDLEPPPEHIPPPPRPPKRILEPHNGKCREFFPNHQWVKEETQEDKDCPIKEEKGSPLNAAPYGIESMSQDTEVRSRVVGGSLRGAQAASPAKGEPSLPEKDED
HALSYWKPFLVNMCVATVLTAGAYLCYRFLFNSNT

> <PDB ID(s) of Target Chain>
1BZJ,1G7G,1GFY,1JF7,1KAK,1KAV,1LQF,1NL9,1NNY,1NO6,1NZ7,1OEM,1OEO,1OES,1OET,1OEU,1OEV,1ONY,1ONZ,1PH0,1PXH,1PYN,1Q1M,1Q6J,1Q6M,1Q6N,1Q6P,1Q6S,1Q6T,1QXK,1SUG,1T48,1T49,1T4J,1WAX,1XBO,2AZR,2B07,2BGD,2BGE,
2CM2,2CM3,2CM7,2CM8,2CMA,2CMB,2CMC,2CNE,2CNF,2CNG,2CNH,2CNI,2F6T,2F6V,2F6W,2F6Y,2F6Z,2F70,2F71,2FJN,2H4G,2H4K,2HB1,2HNP,2HNQ,2QBP,2QBQ,2QBR,2QBS,2VEU,2VEV,2VEW,2VEX,2VEY,2ZMM,2ZN7,3A5J,3CWE,3D9C,3EAX,
3EB1,3EU0,3I7Z,3I80,3SME,4BJO,4I8N,4QBW,4Y14,5K9V,5K9W,5KA0,5KA1,5T19,6B90,6NTP,6W30,7KEY,7KLX,7LFO,7MN9,7MNA,8DU7,8G65,8G67,8G68,8G69,8G6A,8SKL

> <UniProt (SwissProt) Recommended Name of Target Chain>
Tyrosine-protein phosphatase non-receptor type 1

> <UniProt (SwissProt) Entry Name of Target Chain>
PTN1_HUMAN

> <UniProt (SwissProt) Primary ID of Target Chain>
P18031

> <UniProt (SwissProt) Secondary ID(s) of Target Chain>
Q5TGD8 Q9BQV9 Q9NQQ4

$$$$
Molecule
  SciTegic10242319433D

 81 85  0  0  0  0            999 V2000
   -5.4637  -21.3624    0.6250 C   0  0
   -5.4926  -22.7028   -0.1926 C   0  0  1  0  0  0
   -4.2834  -23.5994    0.1698 C   0  0
   -4.1794  -20.5378    0.2305 C   0  0
   -2.9078  -21.3248    0.6102 C   0  0  1  0  0  0
   -2.9757  -22.7414   -0.1602 C   0  0  1  0  0  0
   -1.6822  -23.5742    0.1081 C   0  0
   -0.4396  -22.8012   -0.4721 C   0  0
   -1.5950  -20.5929    0.0698 C   0  0  2  0  0  0
   -0.2278  -21.4570    0.2483 C   0  0  2  0  0  0
   -0.1958  -18.4269    0.2023 C   0  0
   -1.4364  -19.2021    0.7609 C   0  0
    1.1161  -19.2684    0.3668 C   0  0  1  0  0  0
    0.9786  -20.6420   -0.4023 C   0  0  1  0  0  0
    2.2944  -21.4353   -0.3000 C   0  0
    3.4018  -20.5811   -1.0000 C   0  0
    2.3421  -18.4900   -0.0653 C   0  0
    3.6892  -19.2240   -0.2704 C   0  0  2  0  0  0
    4.6807  -18.3326   -1.0682 C   0  0
    4.7724  -16.9989   -0.3263 C   0  0
    3.4354  -16.2606   -0.5010 C   0  0
    2.2578  -17.1506   -0.1431 C   0  0
   -6.6971  -23.4263    0.0719 O   0  0
   -2.8944  -21.3817    2.1854 C   0  0
    0.1985  -21.7867    1.7301 C   0  0
    4.2827  -19.5712    1.1279 C   0  0
    3.6792  -20.3057    1.9168 O   0  0
    5.5512  -19.1183    1.4972 O   0  0
   -4.3006  -24.8636   -0.7060 C   0  0
   -4.4158  -24.0980    1.6435 C   0  0
    3.2652  -15.8329   -1.9716 C   0  0
    3.4222  -14.9874    0.3674 C   0  0
    0.7202  -20.3807   -1.9275 C   0  0
   -6.3553  -20.7782    0.3974 H   0  0
   -5.4384  -21.5872    1.6913 H   0  0
   -5.4499  -22.4673   -1.2560 H   0  0
   -4.1856  -19.5853    0.7604 H   0  0
   -4.1836  -20.3563   -0.8443 H   0  0
   -2.9986  -22.5229   -1.2278 H   0  0
   -1.5553  -23.7147    1.1815 H   0  0
   -1.7668  -24.5458   -0.3786 H   0  0
    0.4514  -23.4160   -0.3447 H   0  0
   -0.6031  -22.6129   -1.5332 H   0  0
   -1.7338  -20.4154   -0.9967 H   0  0
   -0.0876  -17.4889    0.7469 H   0  0
   -0.3539  -18.2173   -0.8556 H   0  0
   -2.3347  -18.6117    0.5803 H   0  0
   -1.3085  -19.3512    1.8330 H   0  0
    1.2290  -19.4960    1.4268 H   0  0
    2.5529  -21.5972    0.7464 H   0  0
    2.1910  -22.3971   -0.8023 H   0  0
    3.0801  -20.3651   -2.0188 H   0  0
    4.3234  -21.1626   -1.0251 H   0  0
    5.6612  -18.8069   -1.1096 H   0  0
    4.3104  -18.1736   -2.0810 H   0  0
    4.9597  -17.1777    0.7325 H   0  0
    5.5821  -16.3997   -0.7430 H   0  0
    1.2962  -16.6797    0.0609 H   0  0
   -6.7532  -23.6511    1.0961 H   0  0
   -2.0139  -21.9288    2.5222 H   0  0
   -3.7930  -21.8874    2.5388 H   0  0
   -2.8669  -20.3683    2.5858 H   0  0
    0.3592  -20.8581    2.2777 H   0  0
    1.1207  -22.3678    1.7227 H   0  0
   -0.5893  -22.3626    2.2158 H   0  0
    6.2664  -19.4933    0.8260 H   0  0
   -5.1919  -25.4495   -0.4818 H   0  0
   -3.4124  -25.4610   -0.5000 H   0  0
   -4.3095  -24.5774   -1.7578 H   0  0
   -5.3383  -24.6682    1.7532 H   0  0
   -4.4366  -23.2412    2.3170 H   0  0
   -3.5652  -24.7333    1.8905 H   0  0
    2.3164  -15.3100   -2.0910 H   0  0
    3.2759  -16.7158   -2.6108 H   0  0
    4.0829  -15.1700   -2.2546 H   0  0
    2.4720  -14.4691    0.2389 H   0  0
    4.2375  -14.3310    0.0632 H   0  0
    3.5477  -15.2604    1.4152 H   0  0
    1.5572  -19.8234   -2.3480 H   0  0
   -0.1968  -19.8038   -2.0476 H   0  0
    0.6205  -21.3332   -2.4480 H   0  0
 18 16  1  0
 18 17  1  0
  6  7  1  0
  7  8  1  0
 10  8  1  0
  9 10  1  0
  6  3  1  0
  5  4  1  0
 17 22  2  0
 18 19  1  0
 19 20  1  0
 20 21  1  0
 21 22  1  0
  5  6  1  0
  2 23  1  0
  5 24  1  0
  9 12  1  0
 10 25  1  0
 10 14  1  0
 13 11  1  0
 18 26  1  0
 11 12  1  0
 26 27  2  0
 14 13  1  0
 26 28  1  0
  2  1  1  0
  3 29  1  0
  1  4  1  0
  3 30  1  0
  2  3  1  0
 21 31  1  0
  5  9  1  0
 21 32  1  0
 13 17  1  0
 14 15  1  0
 15 16  1  0
 14 33  1  0
  1 34  1  0
  1 35  1  0
  2 36  1  0
  4 37  1  0
  4 38  1  0
  6 39  1  0
  7 40  1  0
  7 41  1  0
  8 42  1  0
  8 43  1  0
  9 44  1  0
 11 45  1  0
 11 46  1  0
 12 47  1  0
 12 48  1  0
 13 49  1  0
 15 50  1  0
 15 51  1  0
 16 52  1  0
 16 53  1  0
 19 54  1  0
 19 55  1  0
 20 56  1  0
 20 57  1  0
 22 58  1  0
 23 59  1  0
 24 60  1  0
 24 61  1  0
 24 62  1  0
 25 63  1  0
 25 64  1  0
 25 65  1  0
 28 66  1  0
 29 67  1  0
 29 68  1  0
 29 69  1  0
 30 70  1  0
 30 71  1  0
 30 72  1  0
 31 73  1  0
 31 74  1  0
 31 75  1  0
 32 76  1  0
 32 77  1  0
 32 78  1  0
 33 79  1  0
 33 80  1  0
 33 81  1  0
M  END
> <Name>
Molecule

> <Clean Energy>
64.0891

> <From>
www.bindingDB.org

> <BindingDB Reactant_set_id>
50954875

> <Ligand InChI>
InChI=1S/C30H48O3/c1-25(2)14-16-30(24(32)33)17-15-28(6)19(20(30)18-25)8-9-22-27(5)12-11-23(31)26(3,4)21(27)10-13-29(22,28)7/h18-19,21-23,31H,8-17H2,1-7H3,(H,32,33)/t19-,21+,22-,23+,27+,28-,29-,30+/m1/
s1

> <Ligand InChI Key>
RGZSSKBTFGNUCG-VNTGHVHSSA-N

> <BindingDB MonomerID>
50391854

> <BindingDB Ligand Name>
CHEMBL463665

> <Target Name>
Tyrosine-protein phosphatase non-receptor type 1

> <Target Source Organism According to Curator or DataSource>
Homo sapiens

> <IC50 (nM)>
9100

> <Curation/DataSource>
ChEMBL

> <Article DOI>
10.1016/j.ejmech.2011.03.005

> <BindingDB Entry DOI>
10.7270/Q2FT8N4M

> <PMID>
21453996

> <Authors>
Ramirez-Espinosa, JJ; Rios, MY; Lopez-Martinez, S; Lopez-Vallejo, F; Medina-Franco, JL; Paoli, P; Camici, G; Navarrete-Vazquez, G; Ortiz-Andrade, R; Estrada-Soto, S

> <Institution>
Universidad Aut&#163;noma del Estado de Morelos

> <Link to Ligand in BindingDB>
http://www.bindingdb.org/bind/chemsearch/marvin/MolStructure.jsp?monomerid=50391854

> <Link to Ligand-Target Pair in BindingDB>
http://www.bindingdb.org/jsp/dbsearch/PrimarySearch_ki.jsp?energyterm=kJ/mole&tag=pol&polymerid=2622&target=Tyrosine-protein+phosphatase+non-receptor+type+1&column=ki&startPg=0&Increment=50&submit=Sea
rch
http://www.bindingdb.org/jsp/dbsearch/PrimarySearch_ki.jsp?energyterm=kJ/mole&tag=r21&monomerid=50391854&enzyme=Tyrosine-protein+phosphatase+non-receptor+type+1&column=ki&startPg=0&Increment=50&submit
=Search

> <PubChem CID of Ligand>
489944

> <PubChem SID of Ligand>
163340878

> <ChEMBL ID of Ligand>
CHEMBL463665

> <ZINC ID of Ligand>
ZINC32062227

> <Number of Protein Chains in Target (bigger than 1 implies a multichain complex)>
1

> <BindingDB Target Chain Sequence>
MEMEKEFEQIDKSGSWAAIYQDIRHEASDFPCRVAKLPKNKNRNRYRDVSPFDHSRIKLHQEDNDYINASLIKMEEAQRSYILTQGPLPNTCGHFWEMVWEQKSRGVVMLNRVMEKGSLKCAQYWPQKEEKEMIFEDTNLKLTLISEDIKSYYTVRQLELENLTTQETREILHFHYTTWPDFGVPESPASFLNFLFKVRE
SGSLSPEHGPVVVHCSAGIGRSGTFCLADTCLLLMDKRKDPSSVDIKKVLLEMRKFRMGLIQTADQLRFSYLAVIEGAKFIMGDSSVQDQWKELSHEDLEPPPEHIPPPPRPPKRILEPHNGKCREFFPNHQWVKEETQEDKDCPIKEEKGSPLNAAPYGIESMSQDTEVRSRVVGGSLRGAQAASPAKGEPSLPEKDED
HALSYWKPFLVNMCVATVLTAGAYLCYRFLFNSNT

> <PDB ID(s) of Target Chain>
1BZJ,1G7G,1GFY,1JF7,1KAK,1KAV,1LQF,1NL9,1NNY,1NO6,1NZ7,1OEM,1OEO,1OES,1OET,1OEU,1OEV,1ONY,1ONZ,1PH0,1PXH,1PYN,1Q1M,1Q6J,1Q6M,1Q6N,1Q6P,1Q6S,1Q6T,1QXK,1SUG,1T48,1T49,1T4J,1WAX,1XBO,2AZR,2B07,2BGD,2BGE,
2CM2,2CM3,2CM7,2CM8,2CMA,2CMB,2CMC,2CNE,2CNF,2CNG,2CNH,2CNI,2F6T,2F6V,2F6W,2F6Y,2F6Z,2F70,2F71,2FJN,2H4G,2H4K,2HB1,2HNP,2HNQ,2QBP,2QBQ,2QBR,2QBS,2VEU,2VEV,2VEW,2VEX,2VEY,2ZMM,2ZN7,3A5J,3CWE,3D9C,3EAX,
3EB1,3EU0,3I7Z,3I80,3SME,4BJO,4I8N,4QBW,4Y14,5K9V,5K9W,5KA0,5KA1,5T19,6B90,6NTP,6W30,7KEY,7KLX,7LFO,7MN9,7MNA,8DU7,8G65,8G67,8G68,8G69,8G6A,8SKL

> <UniProt (SwissProt) Recommended Name of Target Chain>
Tyrosine-protein phosphatase non-receptor type 1

> <UniProt (SwissProt) Entry Name of Target Chain>
PTN1_HUMAN

> <UniProt (SwissProt) Primary ID of Target Chain>
P18031

> <UniProt (SwissProt) Secondary ID(s) of Target Chain>
Q5TGD8 Q9BQV9 Q9NQQ4

$$$$
Molecule
  SciTegic10242319433D

 75 79  0  0  0  0            999 V2000
   11.3616  -22.7267   -0.0826 C   0  0
   11.3638  -23.7014    1.1175 C   0  0
   11.3526  -23.6936   -1.2825 C   0  0
   11.3440  -19.8063   -0.5510 C   0  0
   12.5736  -20.4180    0.1497 C   0  0  1  0  0  0
   12.6348  -21.9073   -0.1039 C   0  0
   13.8021  -22.5425   -0.2728 C   0  0
   15.1364  -21.8302   -0.2948 C   0  0
   13.8919  -19.6864   -0.2927 C   0  0  2  0  0  0
   15.0771  -20.4169    0.3252 C   0  0  2  0  0  0
   15.1957  -17.4924   -0.1991 C   0  0
   13.8536  -18.1911    0.1919 C   0  0
   16.3879  -18.2477    0.4787 C   0  0  1  0  0  0
   16.3721  -19.6734   -0.0124 C   0  0  1  0  0  0
   17.6113  -20.3030    0.6329 C   0  0
   18.6016  -19.1002    0.7013 C   0  0
   17.8577  -17.9164   -0.0101 C   0  0  2  0  0  0
   16.2781  -18.1411    2.0326 C   0  0
   12.3647  -20.2378    1.6972 C   0  0
   18.4889  -16.4337    0.3001 C   0  0  2  0  0  0
   17.6807  -15.3221   -0.4073 C   0  0
   19.9818  -16.1920   -0.1994 C   0  0
   21.0841  -17.0506    0.4793 C   0  0
   22.4372  -16.6818   -0.0436 C   0  0
   23.5486  -17.4354    0.3230 O   0  0
   22.5689  -15.7076   -0.7922 O   0  0
   10.0807  -21.9157   -0.0735 C   0  0
   10.0736  -20.5936   -0.2808 C   0  0
    8.7935  -19.9064   -0.2874 C   0  0
    7.7241  -20.5646   -0.0895 N   0  0
    7.7637  -21.9509    0.1339 C   0  0
    8.8708  -22.5791    0.1427 N   0  0
    6.4862  -22.7032    0.3638 C   0  0
   11.3701  -23.1332    2.0477 H   0  0
   12.2513  -24.3326    1.0720 H   0  0
   10.4716  -24.3265    1.0803 H   0  0
   11.3503  -23.1219   -2.2105 H   0  0
   10.4607  -24.3188   -1.2394 H   0  0
   12.2405  -24.3250   -1.2477 H   0  0
   11.5249  -19.7916   -1.6258 H   0  0
   11.2072  -18.7866   -0.1911 H   0  0
   13.7899  -23.6250   -0.4005 H   0  0
   15.8569  -22.4253    0.2663 H   0  0
   15.4655  -21.7415   -1.3301 H   0  0
   13.9751  -19.7138   -1.3792 H   0  0
   14.9540  -20.4856    1.4060 H   0  0
   15.1798  -16.4571    0.1413 H   0  0
   15.3172  -17.5176   -1.2820 H   0  0
   13.0207  -17.6742   -0.2848 H   0  0
   13.7286  -18.1614    1.2743 H   0  0
   16.5032  -19.6724   -1.0945 H   0  0
   17.3861  -20.6851    1.6286 H   0  0
   18.0110  -21.1079    0.0160 H   0  0
   18.8225  -18.8452    1.7377 H   0  0
   19.5286  -19.3379    0.1795 H   0  0
   17.9031  -18.0855   -1.0859 H   0  0
   17.1123  -18.6699    2.4935 H   0  0
   15.3395  -18.5867    2.3624 H   0  0
   16.3055  -17.0923    2.3283 H   0  0
   13.2165  -20.6593    2.2309 H   0  0
   11.4539  -20.7522    2.0037 H   0  0
   12.2787  -19.1767    1.9316 H   0  0
   18.4507  -16.2589    1.3753 H   0  0
   18.1232  -14.3516   -0.1828 H   0  0
   16.6496  -15.3412   -0.0543 H   0  0
   17.6987  -15.4886   -1.4844 H   0  0
   20.0113  -16.3997   -1.2690 H   0  0
   20.2240  -15.1436   -0.0255 H   0  0
   21.0580  -16.8807    1.5557 H   0  0
   20.8953  -18.1040    0.2725 H   0  0
   23.6618  -17.4081    1.3666 H   0  0
    8.7503  -18.8312   -0.4614 H   0  0
    6.7085  -23.7591    0.5178 H   0  0
    5.8371  -22.5920   -0.5048 H   0  0
    5.9836  -22.3058    1.2456 H   0  0
  2  1  1  0
  1  3  1  0
 28  4  1  0
 27  1  1  0
  1  6  1  0
  5  4  1  0
  5  6  1  0
  9  5  1  0
  6  7  2  0
  7  8  1  0
 10  8  1  0
  9 10  1  0
  9 12  1  0
 10 14  1  0
 13 11  1  0
 11 12  1  0
 14 13  1  0
 14 15  1  0
 15 16  1  0
 17 16  1  0
 13 17  1  0
 13 18  1  0
  5 19  1  0
 17 20  1  0
 20 21  1  0
 20 22  1  0
 22 23  1  0
 23 24  1  0
 24 25  1  0
 24 26  2  0
 27 28  2  0
 28 29  1  0
 29 30  2  0
 30 31  1  0
 31 32  2  0
 32 27  1  0
 31 33  1  0
  2 34  1  0
  2 35  1  0
  2 36  1  0
  3 37  1  0
  3 38  1  0
  3 39  1  0
  4 40  1  0
  4 41  1  0
  7 42  1  0
  8 43  1  0
  8 44  1  0
  9 45  1  0
 10 46  1  0
 11 47  1  0
 11 48  1  0
 12 49  1  0
 12 50  1  0
 14 51  1  0
 15 52  1  0
 15 53  1  0
 16 54  1  0
 16 55  1  0
 17 56  1  0
 18 57  1  0
 18 58  1  0
 18 59  1  0
 19 60  1  0
 19 61  1  0
 19 62  1  0
 20 63  1  0
 21 64  1  0
 21 65  1  0
 21 66  1  0
 22 67  1  0
 22 68  1  0
 23 69  1  0
 23 70  1  0
 25 71  1  0
 29 72  1  0
 33 73  1  0
 33 74  1  0
 33 75  1  0
M  END
> <Name>
Molecule

> <Clean Energy>
79.6438

> <From>
www.bindingDB.org

> <BindingDB Reactant_set_id>
50979477

> <Ligand InChI>
InChI=1S/C29H42N2O2/c1-17(7-12-25(32)33)21-9-10-22-20-8-11-24-27(3,4)26-19(16-30-18(2)31-26)15-29(24,6)23(20)13-14-28(21,22)5/h11,16-17,20-23H,7-10,12-15H2,1-6H3,(H,32,33)/t17-,20+,21-,22+,23+,28-,29-
/m1/s1

> <Ligand InChI Key>
RZYKYTXZEFMVOT-BPJZVGOOSA-N

> <BindingDB MonomerID>
50401503

> <BindingDB Ligand Name>
CHEMBL2205892

> <Target Name>
Tyrosine-protein phosphatase non-receptor type 1

> <Target Source Organism According to Curator or DataSource>
Homo sapiens

> <IC50 (nM)>
9110

> <Curation/DataSource>
ChEMBL

> <Article DOI>
10.1016/j.bmcl.2012.09.040

> <BindingDB Entry DOI>
10.7270/Q2JH3NCP

> <PMID>
23067554

> <Authors>
He, HB; Gao, LX; Deng, QF; Ma, WP; Tang, CL; Qiu, WW; Tang, J; Li, JY; Li, J; Yang, F

> <Institution>
East China Normal University

> <Link to Ligand in BindingDB>
http://www.bindingdb.org/bind/chemsearch/marvin/MolStructure.jsp?monomerid=50401503

> <Link to Ligand-Target Pair in BindingDB>
http://www.bindingdb.org/jsp/dbsearch/PrimarySearch_ki.jsp?energyterm=kJ/mole&tag=pol&polymerid=2622&target=Tyrosine-protein+phosphatase+non-receptor+type+1&column=ki&startPg=0&Increment=50&submit=Sea
rch
http://www.bindingdb.org/jsp/dbsearch/PrimarySearch_ki.jsp?energyterm=kJ/mole&tag=r21&monomerid=50401503&enzyme=Tyrosine-protein+phosphatase+non-receptor+type+1&column=ki&startPg=0&Increment=50&submit
=Search

> <PubChem CID of Ligand>
71457703

> <PubChem SID of Ligand>
163350527

> <ChEMBL ID of Ligand>
CHEMBL2205892

> <ZINC ID of Ligand>
ZINC95559968

> <Number of Protein Chains in Target (bigger than 1 implies a multichain complex)>
1

> <BindingDB Target Chain Sequence>
MEMEKEFEQIDKSGSWAAIYQDIRHEASDFPCRVAKLPKNKNRNRYRDVSPFDHSRIKLHQEDNDYINASLIKMEEAQRSYILTQGPLPNTCGHFWEMVWEQKSRGVVMLNRVMEKGSLKCAQYWPQKEEKEMIFEDTNLKLTLISEDIKSYYTVRQLELENLTTQETREILHFHYTTWPDFGVPESPASFLNFLFKVRE
SGSLSPEHGPVVVHCSAGIGRSGTFCLADTCLLLMDKRKDPSSVDIKKVLLEMRKFRMGLIQTADQLRFSYLAVIEGAKFIMGDSSVQDQWKELSHEDLEPPPEHIPPPPRPPKRILEPHNGKCREFFPNHQWVKEETQEDKDCPIKEEKGSPLNAAPYGIESMSQDTEVRSRVVGGSLRGAQAASPAKGEPSLPEKDED
HALSYWKPFLVNMCVATVLTAGAYLCYRFLFNSNT

> <PDB ID(s) of Target Chain>
1BZJ,1G7G,1GFY,1JF7,1KAK,1KAV,1LQF,1NL9,1NNY,1NO6,1NZ7,1OEM,1OEO,1OES,1OET,1OEU,1OEV,1ONY,1ONZ,1PH0,1PXH,1PYN,1Q1M,1Q6J,1Q6M,1Q6N,1Q6P,1Q6S,1Q6T,1QXK,1SUG,1T48,1T49,1T4J,1WAX,1XBO,2AZR,2B07,2BGD,2BGE,
2CM2,2CM3,2CM7,2CM8,2CMA,2CMB,2CMC,2CNE,2CNF,2CNG,2CNH,2CNI,2F6T,2F6V,2F6W,2F6Y,2F6Z,2F70,2F71,2FJN,2H4G,2H4K,2HB1,2HNP,2HNQ,2QBP,2QBQ,2QBR,2QBS,2VEU,2VEV,2VEW,2VEX,2VEY,2ZMM,2ZN7,3A5J,3CWE,3D9C,3EAX,
3EB1,3EU0,3I7Z,3I80,3SME,4BJO,4I8N,4QBW,4Y14,5K9V,5K9W,5KA0,5KA1,5T19,6B90,6NTP,6W30,7KEY,7KLX,7LFO,7MN9,7MNA,8DU7,8G65,8G67,8G68,8G69,8G6A,8SKL

> <UniProt (SwissProt) Recommended Name of Target Chain>
Tyrosine-protein phosphatase non-receptor type 1

> <UniProt (SwissProt) Entry Name of Target Chain>
PTN1_HUMAN

> <UniProt (SwissProt) Primary ID of Target Chain>
P18031

> <UniProt (SwissProt) Secondary ID(s) of Target Chain>
Q5TGD8 Q9BQV9 Q9NQQ4

$$$$
Molecule
  SciTegic10242319433D

 41 43  0  0  0  0            999 V2000
   -2.0400    0.1963    0.0000 C   0  0
   -2.0446   -1.1453    0.0002 C   0  0
   -0.7689   -1.8887    0.0004 C   0  0
   -0.7537    0.9378   -0.0001 C   0  0
    0.3601    0.2156    0.0000 C   0  0
    0.3467   -1.1720    0.0002 C   0  0
    1.6983   -1.6326    0.0003 C   0  0
    2.4403   -0.5149    0.0001 C   0  0
    1.6488    0.6463   -0.0001 O   0  0
    3.9031   -0.5358    0.0001 C   0  0
    4.5203   -1.7131    0.0004 C   0  0
    5.9687   -1.7864    0.0004 C   0  0
    6.7048   -0.6792    0.0002 C   0  0
    6.0229    0.6680   -0.0001 C   0  0
    4.6869    0.7102   -0.0001 C   0  0
    4.0349    1.9395   -0.0004 O   0  0
    8.0890   -0.8258    0.0002 O   0  0
   -3.2442    0.8917   -0.0001 O   0  0
    6.7836    2.0073   -0.0004 C   0  0
    8.2829    1.8616   -0.0006 C   0  0
    9.0937    2.9188   -0.0005 C   0  0
   10.5809    2.7088   -0.0007 C   0  0
    8.5356    4.3142   -0.0003 C   0  0
   -2.9906   -1.6868    0.0003 H   0  0
   -0.7453   -2.9784    0.0006 H   0  0
   -0.7251    2.0274   -0.0003 H   0  0
    2.0496   -2.6645    0.0005 H   0  0
    3.9328   -2.6312    0.0006 H   0  0
    6.4592   -2.7599    0.0007 H   0  0
    4.3078    2.4812    0.8567 H   0  0
    8.3854   -1.3547    0.8576 H   0  0
   -3.7952    0.6382   -0.8573 H   0  0
    6.4937    2.5656   -0.8906 H   0  0
    6.4939    2.5659    0.8897 H   0  0
    8.7172    0.8619   -0.0007 H   0  0
   11.0849    3.6752   -0.0006 H   0  0
   10.8693    2.1493   -0.8907 H   0  0
   10.8695    2.1491    0.8891 H   0  0
    9.3544    5.0335   -0.0002 H   0  0
    7.9236    4.4611    0.8897 H   0  0
    7.9234    4.4614   -0.8900 H   0  0
 10 11  2  0
 11 12  1  0
  2  3  1  0
 12 13  2  0
  3  6  2  0
 13 14  1  0
  1  2  2  0
 14 15  2  0
 15 10  1  0
  5  4  2  0
 15 16  1  0
  6  7  1  0
 13 17  1  0
  7  8  2  0
  1 18  1  0
  8  9  1  0
 14 19  1  0
  9  5  1  0
 19 20  1  0
  4  1  1  0
 20 21  2  0
  8 10  1  0
 21 22  1  0
  5  6  1  0
 21 23  1  0
  2 24  1  0
  3 25  1  0
  4 26  1  0
  7 27  1  0
 11 28  1  0
 12 29  1  0
 16 30  1  0
 17 31  1  0
 18 32  1  0
 19 33  1  0
 19 34  1  0
 20 35  1  0
 22 36  1  0
 22 37  1  0
 22 38  1  0
 23 39  1  0
 23 40  1  0
 23 41  1  0
M  END
> <Name>
Molecule

> <Clean Energy>
20.3747

> <From>
www.bindingDB.org

> <BindingDB Reactant_set_id>
51333219

> <Ligand InChI>
InChI=1S/C19H18O4/c1-11(2)3-6-14-16(21)8-7-15(19(14)22)18-9-12-4-5-13(20)10-17(12)23-18/h3-5,7-10,20-22H,6H2,1-2H3

> <Ligand InChI Key>
JTWAOWXXBMXCGP-UHFFFAOYSA-N

> <BindingDB MonomerID>
50213492

> <BindingDB Ligand Name>
2-[2',4'-dihydroxy-3'-(3-methylbut-2-enyl)phenyl]-6-hydroxybenzofuran::CHEMBL232935

> <Target Name>
Tyrosine-protein phosphatase non-receptor type 1

> <Target Source Organism According to Curator or DataSource>
Homo sapiens

> <IC50 (nM)>
9200

> <Curation/DataSource>
ChEMBL

> <Article DOI>
10.1021/acs.jnatprod.9b00262

> <BindingDB Entry DOI>
10.7270/Q2QJ7MTH

> <PMID>
32196343

> <Authors>
Fan, JR; Kuang, Y; Dong, ZY; Yi, Y; Zhou, YX; Li, B; Qiao, X; Ye, M

> <Institution>
Peking University

> <Link to Ligand in BindingDB>
http://www.bindingdb.org/bind/chemsearch/marvin/MolStructure.jsp?monomerid=50213492

> <Link to Ligand-Target Pair in BindingDB>
http://www.bindingdb.org/jsp/dbsearch/PrimarySearch_ki.jsp?energyterm=kJ/mole&tag=pol&polymerid=2622&target=Tyrosine-protein+phosphatase+non-receptor+type+1&column=ki&startPg=0&Increment=50&submit=Sea
rch
http://www.bindingdb.org/jsp/dbsearch/PrimarySearch_ki.jsp?energyterm=kJ/mole&tag=r21&monomerid=50213492&enzyme=Tyrosine-protein+phosphatase+non-receptor+type+1&column=ki&startPg=0&Increment=50&submit
=Search

> <PubChem CID of Ligand>
23655080

> <PubChem SID of Ligand>
104088841

> <ChEMBL ID of Ligand>
CHEMBL232935

> <ZINC ID of Ligand>
ZINC15115162

> <Number of Protein Chains in Target (bigger than 1 implies a multichain complex)>
1

> <BindingDB Target Chain Sequence>
MEMEKEFEQIDKSGSWAAIYQDIRHEASDFPCRVAKLPKNKNRNRYRDVSPFDHSRIKLHQEDNDYINASLIKMEEAQRSYILTQGPLPNTCGHFWEMVWEQKSRGVVMLNRVMEKGSLKCAQYWPQKEEKEMIFEDTNLKLTLISEDIKSYYTVRQLELENLTTQETREILHFHYTTWPDFGVPESPASFLNFLFKVRE
SGSLSPEHGPVVVHCSAGIGRSGTFCLADTCLLLMDKRKDPSSVDIKKVLLEMRKFRMGLIQTADQLRFSYLAVIEGAKFIMGDSSVQDQWKELSHEDLEPPPEHIPPPPRPPKRILEPHNGKCREFFPNHQWVKEETQEDKDCPIKEEKGSPLNAAPYGIESMSQDTEVRSRVVGGSLRGAQAASPAKGEPSLPEKDED
HALSYWKPFLVNMCVATVLTAGAYLCYRFLFNSNT

> <PDB ID(s) of Target Chain>
1BZJ,1G7G,1GFY,1JF7,1KAK,1KAV,1LQF,1NL9,1NNY,1NO6,1NZ7,1OEM,1OEO,1OES,1OET,1OEU,1OEV,1ONY,1ONZ,1PH0,1PXH,1PYN,1Q1M,1Q6J,1Q6M,1Q6N,1Q6P,1Q6S,1Q6T,1QXK,1SUG,1T48,1T49,1T4J,1WAX,1XBO,2AZR,2B07,2BGD,2BGE,
2CM2,2CM3,2CM7,2CM8,2CMA,2CMB,2CMC,2CNE,2CNF,2CNG,2CNH,2CNI,2F6T,2F6V,2F6W,2F6Y,2F6Z,2F70,2F71,2FJN,2H4G,2H4K,2HB1,2HNP,2HNQ,2QBP,2QBQ,2QBR,2QBS,2VEU,2VEV,2VEW,2VEX,2VEY,2ZMM,2ZN7,3A5J,3CWE,3D9C,3EAX,
3EB1,3EU0,3I7Z,3I80,3SME,4BJO,4I8N,4QBW,4Y14,5K9V,5K9W,5KA0,5KA1,5T19,6B90,6NTP,6W30,7KEY,7KLX,7LFO,7MN9,7MNA,8DU7,8G65,8G67,8G68,8G69,8G6A,8SKL

> <UniProt (SwissProt) Recommended Name of Target Chain>
Tyrosine-protein phosphatase non-receptor type 1

> <UniProt (SwissProt) Entry Name of Target Chain>
PTN1_HUMAN

> <UniProt (SwissProt) Primary ID of Target Chain>
P18031

> <UniProt (SwissProt) Secondary ID(s) of Target Chain>
Q5TGD8 Q9BQV9 Q9NQQ4

$$$$
Molecule
  SciTegic10242319433D

 85 89  0  0  0  0            999 V2000
    2.3323    0.9187    0.9299 C   0  0
   -7.3135   -2.0036   -0.1190 C   0  0  1  0  0  0
   -8.5216   -2.7303    0.1190 O   0  0
   -7.2566   -0.7234    0.7895 C   0  0
   -5.9760    0.1155    0.4283 C   0  0
   -6.1033   -2.9343    0.1612 C   0  0
   -4.7936   -2.0616   -0.1497 C   0  0  2  0  0  0
   -3.4776   -2.9030    0.0322 C   0  0
   -2.2628   -2.0774   -0.5574 C   0  0
   -2.0390   -0.7591    0.2173 C   0  0  1  0  0  0
   -1.4958   -1.1121    1.6510 C   0  0
   -0.9401    0.1497   -0.5238 C   0  0  2  0  0  0
   -1.3635    0.3952   -2.0139 C   0  0
    0.4533   -0.5164   -0.6471 C   0  0
    1.4773    0.4779   -1.3217 C   0  0
    1.7501    1.5933   -0.2835 C   0  0  2  0  0  0
    2.8554    2.5354   -0.9333 C   0  0
    2.7389    3.8164   -0.2193 C   0  0
    1.4307    4.4867   -0.8312 C   0  0
    0.2679    3.3850   -1.0866 C   0  0
    0.4008    2.4081    0.0438 C   0  0  1  0  0  0
   -0.8485    1.5375    0.1686 C   0  0
   -1.9006    2.0782    0.7976 C   0  0
   -3.2379    1.3669    1.0074 C   0  0
   -3.4176    0.0627    0.1769 C   0  0  2  0  0  0
   -4.6974   -0.7056    0.7103 C   0  0  1  0  0  0
   -4.6123   -0.8872    2.2705 C   0  0
    3.6405    0.7360    0.9965 N   0  0
   -6.1518   -4.1391   -0.7929 C   0  0
   -6.2165   -3.5240    1.6025 C   0  0
    1.7110    5.1632   -2.1822 C   0  0
    0.9915    5.5820    0.1785 C   0  0
    1.6016    0.5748    1.8924 O   0  0
    4.2643    0.1372    2.1366 C   0  0
   -7.2871   -1.6958   -1.1643 H   0  0
   -8.5612   -3.0241    1.1263 H   0  0
   -8.1473   -0.1181    0.6213 H   0  0
   -7.2122   -1.0223    1.8368 H   0  0
   -5.9598    1.0236    1.0310 H   0  0
   -6.0067    0.3807   -0.6285 H   0  0
   -4.8448   -1.7714   -1.1991 H   0  0
   -3.5708   -3.8494   -0.5005 H   0  0
   -3.3096   -3.0967    1.0916 H   0  0
   -1.3591   -2.6833   -0.4921 H   0  0
   -2.4689   -1.8428   -1.6017 H   0  0
   -1.3313   -0.1935    2.2141 H   0  0
   -0.5551   -1.6553    1.5601 H   0  0
   -2.2241   -1.7324    2.1735 H   0  0
   -0.6131    1.0119   -2.5085 H   0  0
   -2.3264    0.9054   -2.0392 H   0  0
   -1.4456   -0.5608   -2.5310 H   0  0
    0.8132   -0.7839    0.3464 H   0  0
    0.3694   -1.4153   -1.2579 H   0  0
    2.4027   -0.0431   -1.5673 H   0  0
    1.0478    0.9037   -2.2285 H   0  0
    3.8493    2.1099   -0.7950 H   0  0
    2.6631    2.6723   -1.9974 H   0  0
    2.6242    3.6526    0.8522 H   0  0
    3.6139    4.4407   -0.4003 H   0  0
   -0.7151    3.8558   -1.0719 H   0  0
    0.4178    2.8854   -2.0437 H   0  0
    0.5395    2.9609    0.9729 H   0  0
   -1.7965    3.0916    1.1852 H   0  0
   -3.3246    1.1115    2.0635 H   0  0
   -4.0360    2.0567    0.7332 H   0  0
   -3.6063    0.3485   -0.8579 H   0  0
   -5.4973   -1.4162    2.6240 H   0  0
   -4.5594    0.0911    2.7483 H   0  0
   -3.7212   -1.4625    2.5218 H   0  0
    4.2504    1.0451    0.1735 H   0  0
   -6.0766   -3.7908   -1.8229 H   0  0
   -7.0929   -4.6723   -0.6581 H   0  0
   -5.3204   -4.8095   -0.5750 H   0  0
   -6.1879   -2.7134    2.3306 H   0  0
   -5.3841   -4.2040    1.7838 H   0  0
   -7.1566   -4.0669    1.7007 H   0  0
    0.7920    5.6076   -2.5642 H   0  0
    2.0773    4.4211   -2.8916 H   0  0
    2.4628    5.9414   -2.0504 H   0  0
    0.0940    6.0782   -0.1906 H   0  0
    1.7908    6.3146    0.2912 H   0  0
    0.7811    5.1230    1.1445 H   0  0
    5.3413    0.0858    1.9770 H   0  0
    3.8704   -0.8690    2.2803 H   0  0
    4.0571    0.7380    3.0222 H   0  0
  8  9  1  0
 10  9  1  0
 10 11  1  0
 10 12  1  0
 12 13  1  0
 12 14  1  0
 14 15  1  0
 16 15  1  0
 16  1  1  0
 16 17  1  0
 17 18  1  0
 18 19  1  0
 19 20  1  0
 21 20  1  0
 16 21  1  0
 21 22  1  0
 12 22  1  0
 22 23  2  0
 23 24  1  0
 25 24  1  0
 10 25  1  0
 25 26  1  0
 26  5  1  0
 26  7  1  0
 26 27  1  0
  1 28  1  0
  2  3  1  0
  6 29  1  0
  2  4  1  0
  6 30  1  0
  4  5  1  0
 19 31  1  0
  2  6  1  0
 19 32  1  0
  7  6  1  0
  1 33  2  0
  7  8  1  0
 28 34  1  0
  2 35  1  0
  3 36  1  0
  4 37  1  0
  4 38  1  0
  5 39  1  0
  5 40  1  0
  7 41  1  0
  8 42  1  0
  8 43  1  0
  9 44  1  0
  9 45  1  0
 11 46  1  0
 11 47  1  0
 11 48  1  0
 13 49  1  0
 13 50  1  0
 13 51  1  0
 14 52  1  0
 14 53  1  0
 15 54  1  0
 15 55  1  0
 17 56  1  0
 17 57  1  0
 18 58  1  0
 18 59  1  0
 20 60  1  0
 20 61  1  0
 21 62  1  0
 23 63  1  0
 24 64  1  0
 24 65  1  0
 25 66  1  0
 27 67  1  0
 27 68  1  0
 27 69  1  0
 28 70  1  0
 29 71  1  0
 29 72  1  0
 29 73  1  0
 30 74  1  0
 30 75  1  0
 30 76  1  0
 31 77  1  0
 31 78  1  0
 31 79  1  0
 32 80  1  0
 32 81  1  0
 32 82  1  0
 34 83  1  0
 34 84  1  0
 34 85  1  0
M  END
> <Name>
Molecule

> <Clean Energy>
98.1045

> <From>
www.bindingDB.org

> <BindingDB Reactant_set_id>
51186479

> <Ligand InChI>
InChI=1S/C31H51NO2/c1-26(2)15-17-31(25(34)32-8)18-16-29(6)20(21(31)19-26)9-10-23-28(5)13-12-24(33)27(3,4)22(28)11-14-30(23,29)7/h9,21-24,33H,10-19H2,1-8H3,(H,32,34)/t21-,22-,23+,24-,28-,29+,30+,31-/m0
/s1

> <Ligand InChI Key>
ZNBCUQIOWBPYIT-JBYJGCOVSA-N

> <BindingDB MonomerID>
50246597

> <BindingDB Ligand Name>
(4aS,6aS,6bR,8aR,10S,12aR,12bR,14bS)-10-hydroxy-N,2,2,6a,6b,9,9,12a-octamethyl-1,2,3,4,4a,5,6,6a,6b,7,8,8a,9,10,11,12,12a,12b,13,14b-icosahydropicene-4a-carboxamide::CHEMBL461165

> <Target Name>
Tyrosine-protein phosphatase non-receptor type 1

> <Target Source Organism According to Curator or DataSource>
Homo sapiens

> <IC50 (nM)>
9200

> <Curation/DataSource>
ChEMBL

> <Article DOI>
10.1007/s00044-010-9529-5

> <BindingDB Entry DOI>
10.7270/Q2F76GFZ

> <Authors>
n/a

> <Institution>
n/a

> <Link to Ligand in BindingDB>
http://www.bindingdb.org/bind/chemsearch/marvin/MolStructure.jsp?monomerid=50246597

> <Link to Ligand-Target Pair in BindingDB>
http://www.bindingdb.org/jsp/dbsearch/PrimarySearch_ki.jsp?energyterm=kJ/mole&tag=pol&polymerid=2622&target=Tyrosine-protein+phosphatase+non-receptor+type+1&column=ki&startPg=0&Increment=50&submit=Sea
rch
http://www.bindingdb.org/jsp/dbsearch/PrimarySearch_ki.jsp?energyterm=kJ/mole&tag=r21&monomerid=50246597&enzyme=Tyrosine-protein+phosphatase+non-receptor+type+1&column=ki&startPg=0&Increment=50&submit
=Search

> <PubChem CID of Ligand>
44563318

> <PubChem SID of Ligand>
104101987

> <ChEMBL ID of Ligand>
CHEMBL461165

> <ZINC ID of Ligand>
ZINC40862214

> <Number of Protein Chains in Target (bigger than 1 implies a multichain complex)>
1

> <BindingDB Target Chain Sequence>
MEMEKEFEQIDKSGSWAAIYQDIRHEASDFPCRVAKLPKNKNRNRYRDVSPFDHSRIKLHQEDNDYINASLIKMEEAQRSYILTQGPLPNTCGHFWEMVWEQKSRGVVMLNRVMEKGSLKCAQYWPQKEEKEMIFEDTNLKLTLISEDIKSYYTVRQLELENLTTQETREILHFHYTTWPDFGVPESPASFLNFLFKVRE
SGSLSPEHGPVVVHCSAGIGRSGTFCLADTCLLLMDKRKDPSSVDIKKVLLEMRKFRMGLIQTADQLRFSYLAVIEGAKFIMGDSSVQDQWKELSHEDLEPPPEHIPPPPRPPKRILEPHNGKCREFFPNHQWVKEETQEDKDCPIKEEKGSPLNAAPYGIESMSQDTEVRSRVVGGSLRGAQAASPAKGEPSLPEKDED
HALSYWKPFLVNMCVATVLTAGAYLCYRFLFNSNT

> <PDB ID(s) of Target Chain>
1BZJ,1G7G,1GFY,1JF7,1KAK,1KAV,1LQF,1NL9,1NNY,1NO6,1NZ7,1OEM,1OEO,1OES,1OET,1OEU,1OEV,1ONY,1ONZ,1PH0,1PXH,1PYN,1Q1M,1Q6J,1Q6M,1Q6N,1Q6P,1Q6S,1Q6T,1QXK,1SUG,1T48,1T49,1T4J,1WAX,1XBO,2AZR,2B07,2BGD,2BGE,
2CM2,2CM3,2CM7,2CM8,2CMA,2CMB,2CMC,2CNE,2CNF,2CNG,2CNH,2CNI,2F6T,2F6V,2F6W,2F6Y,2F6Z,2F70,2F71,2FJN,2H4G,2H4K,2HB1,2HNP,2HNQ,2QBP,2QBQ,2QBR,2QBS,2VEU,2VEV,2VEW,2VEX,2VEY,2ZMM,2ZN7,3A5J,3CWE,3D9C,3EAX,
3EB1,3EU0,3I7Z,3I80,3SME,4BJO,4I8N,4QBW,4Y14,5K9V,5K9W,5KA0,5KA1,5T19,6B90,6NTP,6W30,7KEY,7KLX,7LFO,7MN9,7MNA,8DU7,8G65,8G67,8G68,8G69,8G6A,8SKL

> <UniProt (SwissProt) Recommended Name of Target Chain>
Tyrosine-protein phosphatase non-receptor type 1

> <UniProt (SwissProt) Entry Name of Target Chain>
PTN1_HUMAN

> <UniProt (SwissProt) Primary ID of Target Chain>
P18031

> <UniProt (SwissProt) Secondary ID(s) of Target Chain>
Q5TGD8 Q9BQV9 Q9NQQ4

$$$$
Molecule
  SciTegic10242319433D

142148  0  0  0  0            999 V2000
   10.8746  -16.8466   -0.3034 C   0  0  2  0  0  0
   11.0905  -15.3941    0.1827 C   0  0
    9.5654  -17.4488    0.3720 C   0  0  1  0  0  0
    6.8674  -17.0794    0.4287 C   0  0  2  0  0  0
   13.6755  -15.5503   -0.3228 C   0  0  1  0  0  0
   12.5505  -15.0338    0.6462 C   0  0  1  0  0  0
    8.3077  -16.5219   -0.0814 C   0  0  1  0  0  0
    6.7340  -18.6044   -0.1112 C   0  0  2  0  0  0
    5.3354  -19.3345    0.2730 C   0  0
   10.0470  -14.6074    0.5113 C   0  0
   14.9845  -15.6521    0.4893 C   0  0
   12.1762  -17.6901   -0.0164 C   0  0
    9.2939  -18.8734   -0.1602 C   0  0
    8.5438  -15.0468    0.4322 C   0  0
   13.3084  -16.9914   -0.8241 C   0  0
    5.6733  -16.3088   -0.1531 C   0  0
    7.9440  -19.4599    0.3998 C   0  0
   13.8409  -14.6359   -1.5653 C   0  0
   12.8905  -13.5418    1.0357 C   0  0
    4.1613  -18.4722   -0.2701 C   0  0  2  0  0  0
   13.1065  -12.5771   -0.2049 C   0  0
   14.9650  -16.0316    1.6302 O   0  0
    4.3284  -17.0012    0.3320 C   0  0
   14.2321  -13.1916   -1.0849 C   0  0
   10.7034  -16.8411   -1.8662 C   0  0
    9.8586  -17.5541    1.9199 C   0  0
    6.7691  -16.8828    1.9849 C   0  0
    5.2836  -20.7280   -0.3760 C   0  0
    5.1190  -19.5679    1.7994 C   0  0
    2.8746  -19.1681    0.1411 O   0  0
   11.8542  -12.3517   -1.0786 C   0  0
   13.5655  -11.2014    0.3165 C   0  0
   16.1740  -15.4115   -0.1220 N   0  0
   17.3915  -15.6315    0.6426 C   0  0
   18.6377  -15.0951   -0.1153 C   0  0
   19.9202  -15.5918    0.6093 C   0  0
   21.1973  -15.0205   -0.0575 C   0  0
   22.4441  -15.6978    0.5667 C   0  0
   23.7101  -15.0955    0.0117 C   0  0
   24.9409  -15.6960    0.2740 O   0  0
   23.6617  -14.0590   -0.6599 O   0  0
    1.6021  -18.5578   -0.3195 C   0  0  2  0  0  0
    1.5827  -17.2206    0.0569 O   0  0
    0.4574  -16.5008   -0.3908 C   0  0  1  0  0  0
   -0.8715  -17.0397    0.3351 C   0  0  2  0  0  0
   -0.9419  -18.5512   -0.0718 C   0  0  1  0  0  0
    0.3798  -19.2656    0.3503 C   0  0  1  0  0  0
    0.3400  -20.6438   -0.0383 O   0  0
   -2.0551  -19.1852    0.5659 O   0  0
   -2.2324  -16.4395   -0.0435 O   0  0
    0.8762  -15.0734   -0.0544 C   0  0
    2.0995  -14.7628   -0.7069 O   0  0
   -2.4453  -14.9855   -0.2657 C   0  0  2  0  0  0
   -1.6663  -14.1374    0.5904 O   0  0
   -1.7356  -12.7587    0.1243 C   0  0  1  0  0  0
   -3.1464  -12.2295    0.3191 C   0  0  1  0  0  0
   -4.0825  -13.1036   -0.5065 C   0  0  1  0  0  0
   -3.9413  -14.5814   -0.0824 C   0  0  1  0  0  0
   -4.7898  -15.3794   -0.9057 O   0  0
   -5.4306  -12.6599   -0.3373 O   0  0
   -3.4804  -12.2964    1.7046 O   0  0
   -0.7422  -11.8913    0.9106 C   0  0
   -0.7801  -10.5581    0.3977 O   0  0
   12.6963  -15.6000    1.5661 H   0  0
    8.2883  -16.4964   -1.1709 H   0  0
    6.7955  -18.5711   -1.1989 H   0  0
   10.2626  -13.5960    0.8558 H   0  0
   12.4078  -17.6831    1.0487 H   0  0
   12.0461  -18.7184   -0.3538 H   0  0
    9.2388  -18.8389   -1.2482 H   0  0
   10.1137  -19.5250    0.1422 H   0  0
    8.0275  -14.3661   -0.2447 H   0  0
    8.1138  -14.9631    1.4303 H   0  0
   12.9887  -16.9184   -1.8637 H   0  0
   14.2028  -17.6112   -0.7612 H   0  0
    5.6994  -15.2763    0.1953 H   0  0
    5.7218  -16.3267   -1.2419 H   0  0
    7.9661  -19.4388    1.4894 H   0  0
    7.8284  -20.4885    0.0581 H   0  0
   14.6257  -15.0323   -2.2095 H   0  0
   12.9022  -14.5959   -2.1178 H   0  0
   12.0683  -13.1494    1.6342 H   0  0
   13.8044  -13.5438    1.6297 H   0  0
    4.2175  -18.4272   -1.3577 H   0  0
    4.3385  -17.0656    1.4201 H   0  0
    3.4835  -16.3918    0.0114 H   0  0
   15.1515  -13.2460   -0.5018 H   0  0
   14.3910  -12.5563   -1.9562 H   0  0
   10.5506  -17.8610   -2.2190 H   0  0
   11.5996  -16.4276   -2.3289 H   0  0
    9.8413  -16.2309   -2.1356 H   0  0
    8.9859  -17.9637    2.4284 H   0  0
   10.0777  -16.5628    2.3169 H   0  0
   10.7147  -18.2083    2.0844 H   0  0
    5.8069  -17.2532    2.3384 H   0  0
    6.8601  -15.8233    2.2243 H   0  0
    7.5720  -17.4354    2.4729 H   0  0
    4.3439  -21.2155   -0.1165 H   0  0
    6.1168  -21.3296   -0.0130 H   0  0
    5.3532  -20.6277   -1.4592 H   0  0
    4.1599  -20.0601    1.9599 H   0  0
    5.1264  -18.6095    2.3187 H   0  0
    5.9194  -20.1975    2.1883 H   0  0
   12.1002  -11.6794   -1.9004 H   0  0
   11.0627  -11.9101   -0.4730 H   0  0
   11.5141  -13.3063   -1.4802 H   0  0
   13.7185  -10.5259   -0.5251 H   0  0
   14.5001  -11.3139    0.8660 H   0  0
   12.8029  -10.7900    0.9779 H   0  0
   16.2137  -15.0705   -1.1354 H   0  0
   17.3083  -15.1154    1.5991 H   0  0
   17.5140  -16.7007    0.8155 H   0  0
   18.6299  -15.4658   -1.1403 H   0  0
   18.6204  -14.0052   -0.1224 H   0  0
   19.8879  -15.2692    1.6500 H   0  0
   19.9535  -16.6804    0.5667 H   0  0
   21.1707  -15.2221   -1.1283 H   0  0
   21.2453  -13.9444    0.1091 H   0  0
   22.4246  -15.5570    1.6474 H   0  0
   22.4246  -16.7634    0.3382 H   0  0
   25.1051  -15.7203    1.3108 H   0  0
    1.5259  -18.6372   -1.4040 H   0  0
    0.3568  -16.6099   -1.4707 H   0  0
   -0.7400  -16.9684    1.4148 H   0  0
   -1.0591  -18.6255   -1.1529 H   0  0
    0.4850  -19.2054    1.4335 H   0  0
    0.2490  -20.7112   -1.0822 H   0  0
   -1.9482  -19.1154    1.6082 H   0  0
    0.1027  -14.3817   -0.3881 H   0  0
    1.0075  -14.9798    1.0236 H   0  0
    2.8464  -15.4275   -0.3862 H   0  0
   -2.1658  -14.7633   -1.2955 H   0  0
   -1.4821  -12.7245   -0.9352 H   0  0
   -3.2048  -11.1971   -0.0257 H   0  0
   -3.8119  -13.0124   -1.5584 H   0  0
   -4.2288  -14.6945    0.9629 H   0  0
   -4.5260  -15.2466   -1.9134 H   0  0
   -5.6968  -12.7260    0.6763 H   0  0
   -3.4285  -13.2934    2.0299 H   0  0
   -1.0180  -11.8848    1.9651 H   0  0
    0.2636  -12.2966    0.8001 H   0  0
   -0.5155  -10.5658   -0.6184 H   0  0
  1  2  1  0
  3  1  1  0
  7  4  1  0
  5 15  1  0
  6  2  1  0
  3  7  1  0
  8 17  1  0
  8  9  1  0
 10  2  2  0
  5 11  1  0
  1 12  1  0
  3 13  1  0
  7 14  1  0
 15 12  1  0
  4 16  1  0
 17 13  1  0
  5 18  1  0
  6 19  1  0
 20  9  1  0
 21 19  1  0
 22 11  2  0
 23 16  1  0
 24 18  1  0
  1 25  1  0
  3 26  1  0
  4 27  1  0
 28  9  1  0
 29  9  1  0
 20 30  1  0
 31 21  1  0
 32 21  1  0
  5  6  1  0
 14 10  1  0
  4  8  1  0
 21 24  1  0
 20 23  1  0
 11 33  1  0
 33 34  1  0
 34 35  1  0
 35 36  1  0
 36 37  1  0
 37 38  1  0
 38 39  1  0
 39 40  1  0
 39 41  2  0
 42 30  1  0
 42 43  1  0
 47 42  1  0
 44 43  1  0
 45 44  1  0
 45 46  1  0
 46 47  1  0
 47 48  1  0
 46 49  1  0
 45 50  1  0
 44 51  1  0
 51 52  1  0
 53 50  1  0
 53 54  1  0
 58 53  1  0
 55 54  1  0
 56 55  1  0
 56 57  1  0
 57 58  1  0
 58 59  1  0
 57 60  1  0
 56 61  1  0
 55 62  1  0
 62 63  1  0
  6 64  1  0
  7 65  1  0
  8 66  1  0
 10 67  1  0
 12 68  1  0
 12 69  1  0
 13 70  1  0
 13 71  1  0
 14 72  1  0
 14 73  1  0
 15 74  1  0
 15 75  1  0
 16 76  1  0
 16 77  1  0
 17 78  1  0
 17 79  1  0
 18 80  1  0
 18 81  1  0
 19 82  1  0
 19 83  1  0
 20 84  1  0
 23 85  1  0
 23 86  1  0
 24 87  1  0
 24 88  1  0
 25 89  1  0
 25 90  1  0
 25 91  1  0
 26 92  1  0
 26 93  1  0
 26 94  1  0
 27 95  1  0
 27 96  1  0
 27 97  1  0
 28 98  1  0
 28 99  1  0
 28100  1  0
 29101  1  0
 29102  1  0
 29103  1  0
 31104  1  0
 31105  1  0
 31106  1  0
 32107  1  0
 32108  1  0
 32109  1  0
 33110  1  0
 34111  1  0
 34112  1  0
 35113  1  0
 35114  1  0
 36115  1  0
 36116  1  0
 37117  1  0
 37118  1  0
 38119  1  0
 38120  1  0
 40121  1  0
 42122  1  0
 44123  1  0
 45124  1  0
 46125  1  0
 47126  1  0
 48127  1  0
 49128  1  0
 51129  1  0
 51130  1  0
 52131  1  0
 53132  1  0
 55133  1  0
 56134  1  0
 57135  1  0
 58136  1  0
 59137  1  0
 60138  1  0
 61139  1  0
 62140  1  0
 62141  1  0
 63142  1  0
M  END
> <Name>
Molecule

> <Clean Energy>
124.036

> <From>
www.bindingDB.org

> <BindingDB Reactant_set_id>
51061781

> <Ligand InChI>
InChI=1S/C48H79NO14/c1-43(2)18-20-48(42(59)49-22-10-8-9-11-33(52)53)21-19-46(6)26(27(48)23-43)12-13-31-45(5)16-15-32(44(3,4)30(45)14-17-47(31,46)7)62-40-38(58)36(56)39(29(25-51)61-40)63-41-37(57)35(55
)34(54)28(24-50)60-41/h12,27-32,34-41,50-51,54-58H,8-11,13-25H2,1-7H3,(H,49,59)(H,52,53)/t27-,28+,29+,30-,31+,32-,34-,35-,36+,37+,38+,39+,40-,41-,45-,46+,47+,48-/m0/s1

> <Ligand InChI Key>
NFXOUCBIFVXFBL-CJFHBESXSA-N

> <BindingDB MonomerID>
50433191

> <BindingDB Ligand Name>
CHEMBL2375454

> <Target Name>
Tyrosine-protein phosphatase non-receptor type 1

> <Target Source Organism According to Curator or DataSource>
Homo sapiens

> <IC50 (nM)>
9210

> <Curation/DataSource>
ChEMBL

> <Article DOI>
10.1016/j.ejmech.2013.03.001

> <BindingDB Entry DOI>
10.7270/Q27S7Q59

> <PMID>
23531458

> <Authors>
Liu, QC; Guo, TT; Zhang, L; Yu, Y; Wang, P; Yang, JF; Li, YX

> <Institution>
North-West University

> <Link to Ligand in BindingDB>
http://www.bindingdb.org/bind/chemsearch/marvin/MolStructure.jsp?monomerid=50433191

> <Link to Ligand-Target Pair in BindingDB>
http://www.bindingdb.org/jsp/dbsearch/PrimarySearch_ki.jsp?energyterm=kJ/mole&tag=pol&polymerid=2622&target=Tyrosine-protein+phosphatase+non-receptor+type+1&column=ki&startPg=0&Increment=50&submit=Sea
rch
http://www.bindingdb.org/jsp/dbsearch/PrimarySearch_ki.jsp?energyterm=kJ/mole&tag=r21&monomerid=50433191&enzyme=Tyrosine-protein+phosphatase+non-receptor+type+1&column=ki&startPg=0&Increment=50&submit
=Search

> <PubChem CID of Ligand>
72197305

> <PubChem SID of Ligand>
175445508

> <ChEMBL ID of Ligand>
CHEMBL2375454

> <KEGG ID of Ligand>
C04247

> <Number of Protein Chains in Target (bigger than 1 implies a multichain complex)>
1

> <BindingDB Target Chain Sequence>
MEMEKEFEQIDKSGSWAAIYQDIRHEASDFPCRVAKLPKNKNRNRYRDVSPFDHSRIKLHQEDNDYINASLIKMEEAQRSYILTQGPLPNTCGHFWEMVWEQKSRGVVMLNRVMEKGSLKCAQYWPQKEEKEMIFEDTNLKLTLISEDIKSYYTVRQLELENLTTQETREILHFHYTTWPDFGVPESPASFLNFLFKVRE
SGSLSPEHGPVVVHCSAGIGRSGTFCLADTCLLLMDKRKDPSSVDIKKVLLEMRKFRMGLIQTADQLRFSYLAVIEGAKFIMGDSSVQDQWKELSHEDLEPPPEHIPPPPRPPKRILEPHNGKCREFFPNHQWVKEETQEDKDCPIKEEKGSPLNAAPYGIESMSQDTEVRSRVVGGSLRGAQAASPAKGEPSLPEKDED
HALSYWKPFLVNMCVATVLTAGAYLCYRFLFNSNT

> <PDB ID(s) of Target Chain>
1BZJ,1G7G,1GFY,1JF7,1KAK,1KAV,1LQF,1NL9,1NNY,1NO6,1NZ7,1OEM,1OEO,1OES,1OET,1OEU,1OEV,1ONY,1ONZ,1PH0,1PXH,1PYN,1Q1M,1Q6J,1Q6M,1Q6N,1Q6P,1Q6S,1Q6T,1QXK,1SUG,1T48,1T49,1T4J,1WAX,1XBO,2AZR,2B07,2BGD,2BGE,
2CM2,2CM3,2CM7,2CM8,2CMA,2CMB,2CMC,2CNE,2CNF,2CNG,2CNH,2CNI,2F6T,2F6V,2F6W,2F6Y,2F6Z,2F70,2F71,2FJN,2H4G,2H4K,2HB1,2HNP,2HNQ,2QBP,2QBQ,2QBR,2QBS,2VEU,2VEV,2VEW,2VEX,2VEY,2ZMM,2ZN7,3A5J,3CWE,3D9C,3EAX,
3EB1,3EU0,3I7Z,3I80,3SME,4BJO,4I8N,4QBW,4Y14,5K9V,5K9W,5KA0,5KA1,5T19,6B90,6NTP,6W30,7KEY,7KLX,7LFO,7MN9,7MNA,8DU7,8G65,8G67,8G68,8G69,8G6A,8SKL

> <UniProt (SwissProt) Recommended Name of Target Chain>
Tyrosine-protein phosphatase non-receptor type 1

> <UniProt (SwissProt) Entry Name of Target Chain>
PTN1_HUMAN

> <UniProt (SwissProt) Primary ID of Target Chain>
P18031

> <UniProt (SwissProt) Secondary ID(s) of Target Chain>
Q5TGD8 Q9BQV9 Q9NQQ4

$$$$
Molecule
  SciTegic10242319433D

 46 49  0  0  0  0            999 V2000
   12.7000  -22.2112    0.0003 C   0  0
   12.6932  -23.5410    0.0002 C   0  0
   13.9536  -24.2770    0.0001 C   0  0
   15.1176  -23.6279    0.0002 C   0  0
   15.1234  -22.1580    0.0003 C   0  0
   13.9730  -21.4853    0.0004 C   0  0
   16.3590  -24.4364    0.0001 C   0  0
   16.3404  -25.7090    0.0001 N   0  0
   17.6145  -26.1383    0.0001 N   0  0
   18.5135  -25.0770    0.0001 C   0  0
   17.7653  -23.9841    0.0001 C   0  0
   18.2821  -22.5812    0.0000 C   0  0
   19.5895  -22.2818    0.0000 C   0  0
   20.8730  -23.3511    0.0000 S   0  0
   22.1529  -22.2711   -0.0002 C   0  0
   21.6155  -20.9024   -0.0003 N   0  0
   20.1546  -20.9204   -0.0001 C   0  0
   23.6391  -22.7531   -0.0006 S   0  0
   19.4623  -19.8962   -0.0002 O   0  0
   22.3213  -19.5869   -0.0007 C   0  0
   23.8507  -19.4546   -0.0002 C   0  0
   24.3386  -18.3191   -0.0008 O   0  0
   24.7086  -20.5228    0.0011 O   0  0
   17.9917  -27.4752    0.0001 C   0  0
   17.0621  -28.4285    0.0001 C   0  0
   17.4610  -29.8375    0.0001 C   0  0
   18.7525  -30.1646    0.0001 C   0  0
   19.7749  -29.1149    0.0002 C   0  0
   19.4122  -27.8337    0.0002 C   0  0
   11.4943  -21.5127    0.0004 N   0  3
   10.4760  -22.1007    0.0003 O   0  0
   11.4954  -20.1894    0.0006 O   0  5
   11.7465  -24.0812    0.0001 H   0  0
   13.9428  -25.3670    0.0000 H   0  0
   16.0699  -21.6174    0.0003 H   0  0
   13.9790  -20.3953    0.0005 H   0  0
   19.6021  -25.1328    0.0001 H   0  0
   17.5622  -21.7628    0.0000 H   0  0
   21.9756  -19.0619   -0.8912 H   0  0
   21.9750  -19.0610    0.8891 H   0  0
   24.5419  -21.1051    0.8588 H   0  0
   16.0056  -28.1605    0.0001 H   0  0
   16.7010  -30.6189    0.0001 H   0  0
   19.0487  -31.2136    0.0001 H   0  0
   20.8315  -29.3827    0.0002 H   0  0
   20.1718  -27.0520    0.0002 H   0  0
  3  4  2  0
 14 15  1  0
 15 16  1  0
 16 17  1  0
 17 13  1  0
 15 18  2  0
  4  5  1  0
 17 19  2  0
  2  3  1  0
 16 20  1  0
  8  9  1  0
 20 21  1  0
  9 10  1  0
 21 22  2  0
 10 11  2  0
 21 23  1  0
 11  7  1  0
  5  6  2  0
 24 25  2  0
 11 12  1  0
 25 26  1  0
  6  1  1  0
 26 27  2  0
 12 13  2  0
 27 28  1  0
 13 14  1  0
 28 29  2  0
 29 24  1  0
  9 24  1  0
  1  2  2  0
  4  7  1  0
  7  8  2  0
 30 31  2  0
 30 32  1  0
  1 30  1  0
  2 33  1  0
  3 34  1  0
  5 35  1  0
  6 36  1  0
 10 37  1  0
 12 38  1  0
 20 39  1  0
 20 40  1  0
 23 41  1  0
 25 42  1  0
 26 43  1  0
 27 44  1  0
 28 45  1  0
 29 46  1  0
M  CHG  2  30   1  32  -1
M  END
> <Name>
Molecule

> <Clean Energy>
48.9371

> <From>
www.bindingDB.org

> <BindingDB Reactant_set_id>
51233068

> <Ligand InChI>
InChI=1S/C21H14N4O5S2/c26-18(27)12-23-20(28)17(32-21(23)31)10-14-11-24(15-4-2-1-3-5-15)22-19(14)13-6-8-16(9-7-13)25(29)30/h1-11H,12H2,(H,26,27)/b17-10-

> <Ligand InChI Key>
MASHZQIAHILAKC-YVLHZVERSA-N

> <BindingDB MonomerID>
50505217

> <BindingDB Ligand Name>
CHEMBL1935335

> <Target Name>
Tyrosine-protein phosphatase non-receptor type 1

> <Target Source Organism According to Curator or DataSource>
Homo sapiens

> <IC50 (nM)>
9240

> <Curation/DataSource>
ChEMBL

> <Article DOI>
10.1016/j.bmcl.2019.03.023

> <BindingDB Entry DOI>
10.7270/Q2CR5XN6

> <PMID>
30910462

> <Authors>
Sun, L; Wang, P; Xu, L; Gao, L; Li, J; Piao, H

> <Institution>
Yanbian University

> <Link to Ligand in BindingDB>
http://www.bindingdb.org/bind/chemsearch/marvin/MolStructure.jsp?monomerid=50505217

> <Link to Ligand-Target Pair in BindingDB>
http://www.bindingdb.org/jsp/dbsearch/PrimarySearch_ki.jsp?energyterm=kJ/mole&tag=pol&polymerid=2622&target=Tyrosine-protein+phosphatase+non-receptor+type+1&column=ki&startPg=0&Increment=50&submit=Sea
rch
http://www.bindingdb.org/jsp/dbsearch/PrimarySearch_ki.jsp?energyterm=kJ/mole&tag=r21&monomerid=50505217&enzyme=Tyrosine-protein+phosphatase+non-receptor+type+1&column=ki&startPg=0&Increment=50&submit
=Search

> <PubChem CID of Ligand>
57327771

> <PubChem SID of Ligand>
440713802

> <Number of Protein Chains in Target (bigger than 1 implies a multichain complex)>
1

> <BindingDB Target Chain Sequence>
MEMEKEFEQIDKSGSWAAIYQDIRHEASDFPCRVAKLPKNKNRNRYRDVSPFDHSRIKLHQEDNDYINASLIKMEEAQRSYILTQGPLPNTCGHFWEMVWEQKSRGVVMLNRVMEKGSLKCAQYWPQKEEKEMIFEDTNLKLTLISEDIKSYYTVRQLELENLTTQETREILHFHYTTWPDFGVPESPASFLNFLFKVRE
SGSLSPEHGPVVVHCSAGIGRSGTFCLADTCLLLMDKRKDPSSVDIKKVLLEMRKFRMGLIQTADQLRFSYLAVIEGAKFIMGDSSVQDQWKELSHEDLEPPPEHIPPPPRPPKRILEPHNGKCREFFPNHQWVKEETQEDKDCPIKEEKGSPLNAAPYGIESMSQDTEVRSRVVGGSLRGAQAASPAKGEPSLPEKDED
HALSYWKPFLVNMCVATVLTAGAYLCYRFLFNSNT

> <PDB ID(s) of Target Chain>
1BZJ,1G7G,1GFY,1JF7,1KAK,1KAV,1LQF,1NL9,1NNY,1NO6,1NZ7,1OEM,1OEO,1OES,1OET,1OEU,1OEV,1ONY,1ONZ,1PH0,1PXH,1PYN,1Q1M,1Q6J,1Q6M,1Q6N,1Q6P,1Q6S,1Q6T,1QXK,1SUG,1T48,1T49,1T4J,1WAX,1XBO,2AZR,2B07,2BGD,2BGE,
2CM2,2CM3,2CM7,2CM8,2CMA,2CMB,2CMC,2CNE,2CNF,2CNG,2CNH,2CNI,2F6T,2F6V,2F6W,2F6Y,2F6Z,2F70,2F71,2FJN,2H4G,2H4K,2HB1,2HNP,2HNQ,2QBP,2QBQ,2QBR,2QBS,2VEU,2VEV,2VEW,2VEX,2VEY,2ZMM,2ZN7,3A5J,3CWE,3D9C,3EAX,
3EB1,3EU0,3I7Z,3I80,3SME,4BJO,4I8N,4QBW,4Y14,5K9V,5K9W,5KA0,5KA1,5T19,6B90,6NTP,6W30,7KEY,7KLX,7LFO,7MN9,7MNA,8DU7,8G65,8G67,8G68,8G69,8G6A,8SKL

> <UniProt (SwissProt) Recommended Name of Target Chain>
Tyrosine-protein phosphatase non-receptor type 1

> <UniProt (SwissProt) Entry Name of Target Chain>
PTN1_HUMAN

> <UniProt (SwissProt) Primary ID of Target Chain>
P18031

> <UniProt (SwissProt) Secondary ID(s) of Target Chain>
Q5TGD8 Q9BQV9 Q9NQQ4

$$$$
Molecule
  SciTegic10242319433D

 39 41  0  0  0  0            999 V2000
    4.2600   -5.6592    0.0090 C   0  0
    2.8016   -5.4339    0.0079 C   0  0
    1.9797   -6.4791    0.0180 C   0  0
    2.5319   -7.8456    0.0289 C   0  0
    3.8470   -8.0451    0.0285 C   0  0
    4.7525   -6.8994    0.0181 C   0  0
   -0.3148   -7.4405    0.0154 C   0  0
    0.5184   -6.3320    0.0114 C   0  0
   -0.1793   -5.2638   -0.0067 N   0  0
   -1.4866   -5.6281   -0.0157 O   0  0
   -1.5497   -7.0129   -0.0084 C   0  0
   -5.3256   -7.6610    0.0215 C   0  0
   -5.5160   -8.9779    0.0211 C   0  0
   -4.3788   -9.8787   -0.0034 C   0  0
   -3.1114   -9.4562   -0.0277 C   0  0
   -2.8771   -7.8480   -0.0169 C   0  0
   -3.9735   -7.0920    0.0060 C   0  0
   -6.8166   -9.5279    0.0352 O   0  0
   -2.1629  -10.5943   -0.0701 O   0  0
   -7.8290   -8.5104    0.0492 C   0  0
   -0.8054  -10.3278   -0.1785 C   0  0
    0.1228  -11.4688   -0.0331 C   0  0
    1.4942  -11.2131   -0.0577 O   0  0
   -0.2980  -12.6134    0.1472 O   0  0
    4.9395   -4.8069    0.0023 H   0  0
    2.4017   -4.4199   -0.0012 H   0  0
    1.8561   -8.7008    0.0375 H   0  0
    4.2470   -9.0590    0.0359 H   0  0
    5.8310   -7.0574    0.0178 H   0  0
    0.0034   -8.4829    0.0350 H   0  0
   -6.1879   -6.9944    0.0336 H   0  0
   -4.5675  -10.9522   -0.0020 H   0  0
   -3.8617   -6.0078    0.0133 H   0  0
   -8.8139   -8.9772    0.0597 H   0  0
   -7.7319   -7.8882   -0.8406 H   0  0
   -7.7111   -7.8920    0.9390 H   0  0
   -0.6352   -9.8906   -1.1624 H   0  0
   -0.5522   -9.5995    0.5920 H   0  0
    1.7519  -10.7711   -0.9746 H   0  0
  6  1  2  0
 12 13  2  0
 10 11  1  0
 13 14  1  0
  1  2  1  0
 14 15  2  0
  3  4  1  0
 15 16  1  0
  8  9  2  0
 16 17  2  0
 17 12  1  0
 13 18  1  0
  4  5  2  0
 15 19  1  0
 16 11  1  0
  2  3  2  0
 18 20  1  0
  8  3  1  0
  7  8  1  0
 19 21  1  0
  9 10  1  0
 21 22  1  0
 11  7  2  0
 22 23  1  0
  5  6  1  0
 22 24  2  0
  1 25  1  0
  2 26  1  0
  4 27  1  0
  5 28  1  0
  6 29  1  0
  7 30  1  0
 12 31  1  0
 14 32  1  0
 17 33  1  0
 20 34  1  0
 20 35  1  0
 20 36  1  0
 21 37  1  0
 21 38  1  0
 23 39  1  0
M  END
> <Name>
Molecule

> <Clean Energy>
41.0756

> <From>
www.bindingDB.org

> <BindingDB Reactant_set_id>
50644721

> <Ligand InChI>
InChI=1S/C18H15NO5/c1-22-13-7-8-14(16(9-13)23-11-18(20)21)17-10-15(19-24-17)12-5-3-2-4-6-12/h2-10H,11H2,1H3,(H,20,21)

> <Ligand InChI Key>
JAOUSQBTKLRYSB-UHFFFAOYSA-N

> <BindingDB MonomerID>
50346160

> <BindingDB Ligand Name>
2-(5-methoxy-2-(3-phenylisoxazol-5-yl)phenoxy)acetic acid::CHEMBL1783786

> <Target Name>
Tyrosine-protein phosphatase non-receptor type 1

> <Target Source Organism According to Curator or DataSource>
Homo sapiens

> <IC50 (nM)>
9300

> <Curation/DataSource>
ChEMBL

> <Article DOI>
10.1016/j.bmc.2009.05.033

> <BindingDB Entry DOI>
10.7270/Q2J966QV

> <PMID>
19500993

> <Authors>
Kumar, A; Maurya, RA; Sharma, S; Ahmad, P; Singh, AB; Tamrakar, AK; Srivastava, AK

> <Institution>
Central Drug Research Institute

> <Link to Ligand in BindingDB>
http://www.bindingdb.org/bind/chemsearch/marvin/MolStructure.jsp?monomerid=50346160

> <Link to Ligand-Target Pair in BindingDB>
http://www.bindingdb.org/jsp/dbsearch/PrimarySearch_ki.jsp?energyterm=kJ/mole&tag=pol&polymerid=2622&target=Tyrosine-protein+phosphatase+non-receptor+type+1&column=ki&startPg=0&Increment=50&submit=Sea
rch
http://www.bindingdb.org/jsp/dbsearch/PrimarySearch_ki.jsp?energyterm=kJ/mole&tag=r21&monomerid=50346160&enzyme=Tyrosine-protein+phosphatase+non-receptor+type+1&column=ki&startPg=0&Increment=50&submit
=Search

> <PubChem CID of Ligand>
54584397

> <PubChem SID of Ligand>
131349091

> <ChEMBL ID of Ligand>
CHEMBL1783786

> <ZINC ID of Ligand>
ZINC71280609

> <Number of Protein Chains in Target (bigger than 1 implies a multichain complex)>
1

> <BindingDB Target Chain Sequence>
MEMEKEFEQIDKSGSWAAIYQDIRHEASDFPCRVAKLPKNKNRNRYRDVSPFDHSRIKLHQEDNDYINASLIKMEEAQRSYILTQGPLPNTCGHFWEMVWEQKSRGVVMLNRVMEKGSLKCAQYWPQKEEKEMIFEDTNLKLTLISEDIKSYYTVRQLELENLTTQETREILHFHYTTWPDFGVPESPASFLNFLFKVRE
SGSLSPEHGPVVVHCSAGIGRSGTFCLADTCLLLMDKRKDPSSVDIKKVLLEMRKFRMGLIQTADQLRFSYLAVIEGAKFIMGDSSVQDQWKELSHEDLEPPPEHIPPPPRPPKRILEPHNGKCREFFPNHQWVKEETQEDKDCPIKEEKGSPLNAAPYGIESMSQDTEVRSRVVGGSLRGAQAASPAKGEPSLPEKDED
HALSYWKPFLVNMCVATVLTAGAYLCYRFLFNSNT

> <PDB ID(s) of Target Chain>
1BZJ,1G7G,1GFY,1JF7,1KAK,1KAV,1LQF,1NL9,1NNY,1NO6,1NZ7,1OEM,1OEO,1OES,1OET,1OEU,1OEV,1ONY,1ONZ,1PH0,1PXH,1PYN,1Q1M,1Q6J,1Q6M,1Q6N,1Q6P,1Q6S,1Q6T,1QXK,1SUG,1T48,1T49,1T4J,1WAX,1XBO,2AZR,2B07,2BGD,2BGE,
2CM2,2CM3,2CM7,2CM8,2CMA,2CMB,2CMC,2CNE,2CNF,2CNG,2CNH,2CNI,2F6T,2F6V,2F6W,2F6Y,2F6Z,2F70,2F71,2FJN,2H4G,2H4K,2HB1,2HNP,2HNQ,2QBP,2QBQ,2QBR,2QBS,2VEU,2VEV,2VEW,2VEX,2VEY,2ZMM,2ZN7,3A5J,3CWE,3D9C,3EAX,
3EB1,3EU0,3I7Z,3I80,3SME,4BJO,4I8N,4QBW,4Y14,5K9V,5K9W,5KA0,5KA1,5T19,6B90,6NTP,6W30,7KEY,7KLX,7LFO,7MN9,7MNA,8DU7,8G65,8G67,8G68,8G69,8G6A,8SKL

> <UniProt (SwissProt) Recommended Name of Target Chain>
Tyrosine-protein phosphatase non-receptor type 1

> <UniProt (SwissProt) Entry Name of Target Chain>
PTN1_HUMAN

> <UniProt (SwissProt) Primary ID of Target Chain>
P18031

> <UniProt (SwissProt) Secondary ID(s) of Target Chain>
Q5TGD8 Q9BQV9 Q9NQQ4

$$$$
Molecule
  SciTegic10242319433D

 56 58  0  0  0  0            999 V2000
    5.0148   -4.4258   -0.0003 C   0  0
    4.9553   -5.7537    0.0004 C   0  0
    6.2263   -6.5296   -0.0003 C   0  0
    6.2950   -3.7144    0.0005 C   0  0
    7.4436   -4.4192   -0.0003 C   0  0
    7.3901   -5.8788    0.0005 C   0  0
    9.8648   -4.5282    0.0000 C   0  0
    8.6782   -3.8150    0.0002 O   0  0
    9.9020   -5.8632    0.0001 C   0  0
    8.6375   -6.6159    0.0000 C   0  0
    6.2394   -7.9206    0.0001 O   0  0
    3.8329   -3.6935    0.0001 O   0  0
    3.5580   -6.3918    0.0000 C   0  0
    3.5481   -7.8945   -0.0003 C   0  0
    2.4043   -8.5766    0.0000 C   0  0
    2.4362  -10.0770   -0.0004 C   0  0
    1.0849   -7.8556    0.0006 C   0  0
    8.6224   -7.8511    0.0001 O   0  0
   11.2254   -6.5505   -0.0001 C   0  0
   11.3148   -7.8816   -0.0002 C   0  0
   12.6160   -8.5424   -0.0004 C   0  0
   13.7290   -7.8148   -0.0006 C   0  0
   13.6452   -6.3516   -0.0005 C   0  0
   12.4554   -5.7503   -0.0003 C   0  0
   14.9690   -8.4444   -0.0008 O   0  0
    6.2064   -2.1789    0.0000 C   0  0
    7.5063   -1.4259    0.0004 C   0  0
    7.5064   -0.0926    0.0003 C   0  0
    8.8074    0.6534    0.0006 C   0  0
    6.2074    0.6704   -0.0002 C   0  0
   10.8059   -3.9783   -0.0002 H   0  0
    5.7485   -8.2755    0.8578 H   0  0
    3.2738   -3.9299   -0.8567 H   0  0
    3.0297   -6.0501    0.8901 H   0  0
    3.0300   -6.0498   -0.8902 H   0  0
    4.4941   -8.4359   -0.0007 H   0  0
    1.4168  -10.4626   -0.0001 H   0  0
    2.9579  -10.4301    0.8893 H   0  0
    2.9573  -10.4297   -0.8905 H   0  0
    0.2729   -8.5828    0.0007 H   0  0
    1.0116   -7.2301   -0.8891 H   0  0
    1.0122   -7.2305    0.8906 H   0  0
   10.4055   -8.4825   -0.0002 H   0  0
   12.6754   -9.6307   -0.0005 H   0  0
   14.5569   -5.7543   -0.0005 H   0  0
   12.3961   -4.6619   -0.0002 H   0  0
   15.0575   -9.0444    0.8564 H   0  0
    5.6529   -1.8809   -0.8905 H   0  0
    5.6521   -1.8804    0.8898 H   0  0
    8.4506   -1.9703    0.0008 H   0  0
    8.6119    1.7257    0.0004 H   0  0
    9.3788    0.3887   -0.8891 H   0  0
    9.3783    0.3889    0.8907 H   0  0
    6.4140    1.7406   -0.0003 H   0  0
    5.6332    0.4118    0.8895 H   0  0
    5.6337    0.4116   -0.8903 H   0  0
  1  2  2  0
 14 15  2  0
  5  8  1  0
 15 16  1  0
  6 10  1  0
 15 17  1  0
  9  7  2  0
 10 18  2  0
  7  8  1  0
  9 19  1  0
  9 10  1  0
 19 20  2  0
  5  4  2  0
 20 21  1  0
  4  1  1  0
 21 22  2  0
  5  6  1  0
 22 23  1  0
  3 11  1  0
 23 24  2  0
 24 19  1  0
 22 25  1  0
  1 12  1  0
  4 26  1  0
  2  3  1  0
 26 27  1  0
  2 13  1  0
 27 28  2  0
  3  6  2  0
 28 29  1  0
 13 14  1  0
 28 30  1  0
  7 31  1  0
 11 32  1  0
 12 33  1  0
 13 34  1  0
 13 35  1  0
 14 36  1  0
 16 37  1  0
 16 38  1  0
 16 39  1  0
 17 40  1  0
 17 41  1  0
 17 42  1  0
 20 43  1  0
 21 44  1  0
 23 45  1  0
 24 46  1  0
 25 47  1  0
 26 48  1  0
 26 49  1  0
 27 50  1  0
 29 51  1  0
 29 52  1  0
 29 53  1  0
 30 54  1  0
 30 55  1  0
 30 56  1  0
M  END
> <Name>
Molecule

> <Clean Energy>
2.02416

> <From>
www.bindingDB.org

> <BindingDB Reactant_set_id>
50449453

> <Ligand InChI>
InChI=1S/C25H26O5/c1-14(2)5-11-18-22(27)19(12-6-15(3)4)25-21(23(18)28)24(29)20(13-30-25)16-7-9-17(26)10-8-16/h5-10,13,26-28H,11-12H2,1-4H3

> <Ligand InChI Key>
UCHYSPNEUSDFQR-UHFFFAOYSA-N

> <BindingDB MonomerID>
50442403

> <BindingDB Ligand Name>
CHEMBL494252

> <Target Name>
Tyrosine-protein phosphatase non-receptor type 1

> <Target Source Organism According to Curator or DataSource>
Homo sapiens

> <IC50 (nM)>
9300

> <Curation/DataSource>
ChEMBL

> <Article DOI>
10.1016/j.bmcl.2015.12.021

> <BindingDB Entry DOI>
10.7270/Q2C82C4W

> <PMID>
26704263

> <Authors>
Wang, Y; Yuk, HJ; Kim, JY; Kim, DW; Song, YH; Tan, XF; Curtis-Long, MJ; Park, KH

> <Institution>
Qiqihar University

> <Link to Ligand in BindingDB>
http://www.bindingdb.org/bind/chemsearch/marvin/MolStructure.jsp?monomerid=50442403

> <Link to Ligand-Target Pair in BindingDB>
http://www.bindingdb.org/jsp/dbsearch/PrimarySearch_ki.jsp?energyterm=kJ/mole&tag=pol&polymerid=2622&target=Tyrosine-protein+phosphatase+non-receptor+type+1&column=ki&startPg=0&Increment=50&submit=Sea
rch
http://www.bindingdb.org/jsp/dbsearch/PrimarySearch_ki.jsp?energyterm=kJ/mole&tag=r21&monomerid=50442403&enzyme=Tyrosine-protein+phosphatase+non-receptor+type+1&column=ki&startPg=0&Increment=50&submit
=Search

> <PubChem CID of Ligand>
480783

> <PubChem SID of Ligand>
175454720

> <ChEMBL ID of Ligand>
CHEMBL494252

> <ZINC ID of Ligand>
ZINC05854389

> <Number of Protein Chains in Target (bigger than 1 implies a multichain complex)>
1

> <BindingDB Target Chain Sequence>
MEMEKEFEQIDKSGSWAAIYQDIRHEASDFPCRVAKLPKNKNRNRYRDVSPFDHSRIKLHQEDNDYINASLIKMEEAQRSYILTQGPLPNTCGHFWEMVWEQKSRGVVMLNRVMEKGSLKCAQYWPQKEEKEMIFEDTNLKLTLISEDIKSYYTVRQLELENLTTQETREILHFHYTTWPDFGVPESPASFLNFLFKVRE
SGSLSPEHGPVVVHCSAGIGRSGTFCLADTCLLLMDKRKDPSSVDIKKVLLEMRKFRMGLIQTADQLRFSYLAVIEGAKFIMGDSSVQDQWKELSHEDLEPPPEHIPPPPRPPKRILEPHNGKCREFFPNHQWVKEETQEDKDCPIKEEKGSPLNAAPYGIESMSQDTEVRSRVVGGSLRGAQAASPAKGEPSLPEKDED
HALSYWKPFLVNMCVATVLTAGAYLCYRFLFNSNT

> <PDB ID(s) of Target Chain>
1BZJ,1G7G,1GFY,1JF7,1KAK,1KAV,1LQF,1NL9,1NNY,1NO6,1NZ7,1OEM,1OEO,1OES,1OET,1OEU,1OEV,1ONY,1ONZ,1PH0,1PXH,1PYN,1Q1M,1Q6J,1Q6M,1Q6N,1Q6P,1Q6S,1Q6T,1QXK,1SUG,1T48,1T49,1T4J,1WAX,1XBO,2AZR,2B07,2BGD,2BGE,
2CM2,2CM3,2CM7,2CM8,2CMA,2CMB,2CMC,2CNE,2CNF,2CNG,2CNH,2CNI,2F6T,2F6V,2F6W,2F6Y,2F6Z,2F70,2F71,2FJN,2H4G,2H4K,2HB1,2HNP,2HNQ,2QBP,2QBQ,2QBR,2QBS,2VEU,2VEV,2VEW,2VEX,2VEY,2ZMM,2ZN7,3A5J,3CWE,3D9C,3EAX,
3EB1,3EU0,3I7Z,3I80,3SME,4BJO,4I8N,4QBW,4Y14,5K9V,5K9W,5KA0,5KA1,5T19,6B90,6NTP,6W30,7KEY,7KLX,7LFO,7MN9,7MNA,8DU7,8G65,8G67,8G68,8G69,8G6A,8SKL

> <UniProt (SwissProt) Recommended Name of Target Chain>
Tyrosine-protein phosphatase non-receptor type 1

> <UniProt (SwissProt) Entry Name of Target Chain>
PTN1_HUMAN

> <UniProt (SwissProt) Primary ID of Target Chain>
P18031

> <UniProt (SwissProt) Secondary ID(s) of Target Chain>
Q5TGD8 Q9BQV9 Q9NQQ4

$$$$
10b
  SciTegic10242319433D

 46 48  0  0  0  0            999 V2000
   -3.1959    2.1330   -0.2334 C   0  0
   -4.3064    1.3731   -0.2823 C   0  0
   -4.2070   -0.1120   -0.1866 C   0  0
   -3.0279   -0.7166   -0.0477 C   0  0
   -1.9225    1.4246   -0.0823 C   0  0
   -1.8552    0.1098    0.0021 C   0  0
   -0.5738    1.9275   -0.0093 C   0  0
    0.2615    0.7493    0.1273 C   0  0
   -0.5134   -0.3422    0.1358 N   0  0
    1.4945    0.7459    0.2212 O   0  0
   -0.1544    3.1278   -0.0560 N   0  0
    1.1704    3.3067    0.0246 N   0  0
    1.7874    4.5631    0.0162 C   0  0
    1.7644    6.9899   -0.0315 C   0  0
    1.0732    5.6874   -0.0244 C   0  0
    3.2514    4.6284    0.0517 C   0  0
    3.8732    5.8043    0.0431 C   0  0
    3.0974    7.0397    0.0003 C   0  0
   -5.9249    2.0889   -0.4941 S   0  0
   -5.2051    3.1454    0.3215 O   0  0
   -6.3443    0.6919   -0.0761 O   0  0
   -7.2137    2.6466    0.5666 N   0  0
   -8.5372    2.7273   -0.1381 C   0  0
   -9.5520    3.4562    0.7586 C   0  0
   -9.1088    1.3321   -0.4934 C   0  0
    3.7925    8.3274   -0.0062 C   0  0
    5.0285    8.3599    0.0192 O   0  0
    3.0671    9.5127   -0.0392 O   0  0
   -3.2420    3.2198   -0.3028 H   0  0
   -5.1150   -0.7133   -0.2312 H   0  0
   -2.9562   -1.8018    0.0255 H   0  0
   -0.1868   -1.3571    0.2257 H   0  0
    1.7929    2.4396    0.0998 H   0  0
    1.1857    7.9131   -0.0629 H   0  0
   -0.0156    5.6445   -0.0520 H   0  0
    3.8340    3.7078    0.0853 H   0  0
    4.9621    5.8451    0.0680 H   0  0
   -6.9600    3.6188    0.9345 H   0  0
   -8.4096    3.2980   -1.0580 H   0  0
  -10.5128    3.5151    0.2475 H   0  0
   -9.1921    4.4628    0.9717 H   0  0
   -9.6712    2.9080    1.6932 H   0  0
  -10.0661    1.4497   -1.0011 H   0  0
   -9.2510    0.7539    0.4197 H   0  0
   -8.4122    0.8096   -1.1490 H   0  0
    2.4791    9.5397   -0.9087 H   0  0
  1  2  2  0
  1  5  1  0
  2  3  1  0
  3  4  2  0
  4  6  1  0
  7  5  1  0
  5  6  2  0
  6  9  1  0
  7  8  1  0
  9  8  1  0
  8 10  2  0
  7 11  2  0
 11 12  1  0
 12 13  1  0
 15 13  2  0
 13 16  1  0
 14 15  1  0
 14 18  2  0
 16 17  2  0
 17 18  1  0
  2 19  1  0
 19 22  1  0
 19 21  2  0
 19 20  2  0
 22 23  1  0
 23 24  1  0
 23 25  1  0
 18 26  1  0
 26 28  1  0
 26 27  2  0
  1 29  1  0
  3 30  1  0
  4 31  1  0
  9 32  1  0
 12 33  1  0
 14 34  1  0
 15 35  1  0
 16 36  1  0
 17 37  1  0
 22 38  1  0
 23 39  1  0
 24 40  1  0
 24 41  1  0
 24 42  1  0
 25 43  1  0
 25 44  1  0
 25 45  1  0
 28 46  1  0
M  END
> <Name>
10b

> <Clean Energy>
111.428

> <From>
www.bindingDB.org

> <BindingDB Reactant_set_id>
44522

> <Ligand InChI>
InChI=1S/C18H18N4O5S/c1-10(2)22-28(26,27)13-7-8-15-14(9-13)16(17(23)19-15)21-20-12-5-3-11(4-6-12)18(24)25/h3-10,20,22H,1-2H3,(H,24,25)(H,19,21,23)

> <Ligand InChI Key>
ZEQXXXUTJHQJPV-UHFFFAOYSA-N

> <BindingDB MonomerID>
24537

> <BindingDB Ligand Name>
4-{2-[(3Z)-2-oxo-5-(propan-2-ylsulfamoyl)-2,3-dihydro-1H-indol-3-ylidene]hydrazin-1-yl}benzoic acid::Oxindole scaffold, 10b

> <Target Name>
Tyrosine-protein phosphatase non-receptor type 1

> <Target Source Organism According to Curator or DataSource>
Homo sapiens

> <IC50 (nM)>
9300

> <Curation/DataSource>
Curated from the literature by BindingDB

> <Article DOI>
10.1021/jm8002526

> <BindingDB Entry DOI>
10.7270/Q2XD0ZZ8

> <PMID>
18680359

> <PubChem AID>
aid1798441

> <Authors>
Lawrence, HR; Pireddu, R; Chen, L; Luo, Y; Sung, SS; Szymanski, AM; Yip, ML; Guida, WC; Sebti, SM; Wu, J; Lawrence, NJ

> <Institution>
Moffitt Cancer Center

> <Link to Ligand in BindingDB>
http://www.bindingdb.org/bind/chemsearch/marvin/MolStructure.jsp?monomerid=24537

> <Link to Ligand-Target Pair in BindingDB>
http://www.bindingdb.org/jsp/dbsearch/PrimarySearch_ki.jsp?energyterm=kJ/mole&tag=pol&polymerid=2622&target=Tyrosine-protein+phosphatase+non-receptor+type+1&column=ki&startPg=0&Increment=50&submit=Sea
rch
http://www.bindingdb.org/jsp/dbsearch/PrimarySearch_ki.jsp?energyterm=kJ/mole&tag=r21&monomerid=24537&enzyme=Tyrosine-protein+phosphatase+non-receptor+type+1&column=ki&startPg=0&Increment=50&submit=Se
arch

> <PubChem CID of Ligand>
24971254

> <PubChem SID of Ligand>
56269488

> <ZINC ID of Ligand>
ZINC40975291

> <Number of Protein Chains in Target (bigger than 1 implies a multichain complex)>
1

> <BindingDB Target Chain Sequence>
MEMEKEFEQIDKSGSWAAIYQDIRHEASDFPCRVAKLPKNKNRNRYRDVSPFDHSRIKLHQEDNDYINASLIKMEEAQRSYILTQGPLPNTCGHFWEMVWEQKSRGVVMLNRVMEKGSLKCAQYWPQKEEKEMIFEDTNLKLTLISEDIKSYYTVRQLELENLTTQETREILHFHYTTWPDFGVPESPASFLNFLFKVRE
SGSLSPEHGPVVVHCSAGIGRSGTFCLADTCLLLMDKRKDPSSVDIKKVLLEMRKFRMGLIQTADQLRFSYLAVIEGAKFIMGDSSVQDQWKELSHEDLEPPPEHIPPPPRPPKRILEPHNGKCREFFPNHQWVKEETQEDKDCPIKEEKGSPLNAAPYGIESMSQDTEVRSRVVGGSLRGAQAASPAKGEPSLPEKDED
HALSYWKPFLVNMCVATVLTAGAYLCYRFLFNSNT

> <PDB ID(s) of Target Chain>
1BZJ,1G7G,1GFY,1JF7,1KAK,1KAV,1LQF,1NL9,1NNY,1NO6,1NZ7,1OEM,1OEO,1OES,1OET,1OEU,1OEV,1ONY,1ONZ,1PH0,1PXH,1PYN,1Q1M,1Q6J,1Q6M,1Q6N,1Q6P,1Q6S,1Q6T,1QXK,1SUG,1T48,1T49,1T4J,1WAX,1XBO,2AZR,2B07,2BGD,2BGE,
2CM2,2CM3,2CM7,2CM8,2CMA,2CMB,2CMC,2CNE,2CNF,2CNG,2CNH,2CNI,2F6T,2F6V,2F6W,2F6Y,2F6Z,2F70,2F71,2FJN,2H4G,2H4K,2HB1,2HNP,2HNQ,2QBP,2QBQ,2QBR,2QBS,2VEU,2VEV,2VEW,2VEX,2VEY,2ZMM,2ZN7,3A5J,3CWE,3D9C,3EAX,
3EB1,3EU0,3I7Z,3I80,3SME,4BJO,4I8N,4QBW,4Y14,5K9V,5K9W,5KA0,5KA1,5T19,6B90,6NTP,6W30,7KEY,7KLX,7LFO,7MN9,7MNA,8DU7,8G65,8G67,8G68,8G69,8G6A,8SKL

> <UniProt (SwissProt) Recommended Name of Target Chain>
Tyrosine-protein phosphatase non-receptor type 1

> <UniProt (SwissProt) Entry Name of Target Chain>
PTN1_HUMAN

> <UniProt (SwissProt) Primary ID of Target Chain>
P18031

> <UniProt (SwissProt) Secondary ID(s) of Target Chain>
Q5TGD8 Q9BQV9 Q9NQQ4

$$$$
Molecule
  SciTegic10242319433D

 81 84  0  0  0  0            999 V2000
   -1.2626   -3.3308   -0.4007 C   0  0
    0.0033   -2.4978   -0.4188 C   0  0
    1.1934   -3.1174   -0.4077 N   0  0
   -0.0890   -1.2686   -0.5082 O   0  0
    2.5144   -2.4666   -0.5104 C   0  0  2  0  0  0
    3.5240   -3.5546   -0.1857 C   0  0
    2.6395   -1.1313    0.3812 C   0  0
    3.9647   -0.3025    0.2964 C   0  0
    3.1193   -5.0362    0.4073 S   0  0
    4.6432   -5.6744    0.4916 C   0  0
    5.4857   -4.7204    0.0397 C   0  0
    4.7889   -3.4985   -0.3578 N   0  0
    5.1352   -0.8572    0.0014 C   0  0
    6.3588   -0.0865   -0.0585 C   0  0
    6.3374    1.2221    0.1685 C   0  0
    5.0554    1.8735    0.4828 C   0  0
    3.9319    1.1498    0.5515 C   0  0
    7.0217   -4.8088   -0.0608 C   0  0
    7.8464   -5.8419    0.2272 C   0  0
    9.3560   -5.5850    0.0813 C   0  0
    7.3112   -7.1498    0.7619 C   0  0
   10.4250   -6.4187   -0.0115 C   0  0
   11.7802   -5.7658   -0.0687 C   0  0
   10.4085   -7.9264   -0.0763 C   0  0
    9.3685   -8.5663   -0.2234 O   0  0
   11.5860   -8.6523   -0.0128 O   0  0
   -2.4543   -2.5597    0.1987 C   0  0
   -3.7355   -3.4161    0.0573 C   0  0
   -3.5426   -4.7774    0.7650 C   0  0
   -2.3600   -5.5365    0.1179 C   0  0
   -1.0574   -4.7094    0.2618 C   0  0
    7.5355    1.9678    0.1272 O   0  0
   11.2244  -10.0437   -0.1048 C   0  0
   12.4619  -10.9423    0.0112 C   0  0
    8.6574    1.0962   -0.1400 C   0  0
    9.9458    1.8611   -0.1013 C   0  0
   11.1055    1.2089   -0.1786 C   0  0
   12.3685    1.9499   -0.1340 C   0  0
   12.3564    3.2767   -0.0174 C   0  0
   11.0797    3.9931    0.0668 C   0  0
    9.9318    3.3181    0.0282 C   0  0
   -1.5163   -3.5259   -1.4426 H   0  0
    1.1840   -4.1834   -0.3156 H   0  0
    2.6610   -2.1817   -1.5523 H   0  0
    1.8256   -0.4691    0.0860 H   0  0
    2.5095   -1.4257    1.4226 H   0  0
    4.9143   -6.6699    0.8432 H   0  0
    5.1755   -1.9273   -0.2021 H   0  0
    7.3016   -0.5818   -0.2907 H   0  0
    5.0211    2.9485    0.6601 H   0  0
    2.9878    1.6361    0.7973 H   0  0
    7.5164   -3.9051   -0.4166 H   0  0
    9.6197   -4.5280    0.0453 H   0  0
    8.1375   -7.8415    0.9252 H   0  0
    6.6151   -7.5797    0.0417 H   0  0
    6.7943   -6.9729    1.7052 H   0  0
   12.5510   -6.5330   -0.1414 H   0  0
   11.9387   -5.1768    0.8347 H   0  0
   11.8335   -5.1141   -0.9409 H   0  0
   -2.2650   -2.3579    1.2530 H   0  0
   -2.5844   -1.6178   -0.3343 H   0  0
   -4.5741   -2.8886    0.5120 H   0  0
   -3.9418   -3.5849   -0.9996 H   0  0
   -3.3315   -4.6101    1.8212 H   0  0
   -4.4519   -5.3700    0.6651 H   0  0
   -2.2334   -6.4984    0.6147 H   0  0
   -2.5700   -5.6980   -0.9394 H   0  0
   -0.2365   -5.2322   -0.2291 H   0  0
   -0.8241   -4.5761    1.3181 H   0  0
   10.5316  -10.2858    0.7011 H   0  0
   10.7422  -10.2237   -1.0656 H   0  0
   12.1608  -11.9874   -0.0614 H   0  0
   12.9475  -10.7706    0.9719 H   0  0
   13.1581  -10.7086   -0.7943 H   0  0
    8.6861    0.3094    0.6138 H   0  0
    8.5361    0.6501   -1.1271 H   0  0
   11.1143    0.1232   -0.2750 H   0  0
   13.3169    1.4162   -0.1963 H   0  0
   13.2951    3.8297    0.0154 H   0  0
   11.0699    5.0789    0.1611 H   0  0
    8.9832    3.8509    0.0931 H   0  0
  1  2  1  0
  2  3  1  0
  2  4  2  0
  5  3  1  0
  5  6  1  0
  5  7  1  0
  7  8  1  0
  6  9  1  0
  9 10  1  0
 10 11  2  0
 11 12  1  0
 12  6  2  0
  8 13  2  0
 13 14  1  0
 14 15  2  0
 15 16  1  0
 16 17  2  0
 17  8  1  0
 11 18  1  0
 18 19  2  0
 19 20  1  0
 19 21  1  0
 20 22  2  0
 22 23  1  0
 22 24  1  0
 24 25  2  0
 24 26  1  0
  1 27  1  0
  1 31  1  0
 27 28  1  0
 28 29  1  0
 29 30  1  0
 30 31  1  0
 15 32  1  0
 26 33  1  0
 33 34  1  0
 32 35  1  0
 35 36  1  0
 36 37  2  0
 37 38  1  0
 38 39  2  0
 39 40  1  0
 40 41  2  0
 41 36  1  0
  1 42  1  0
  3 43  1  0
  5 44  1  0
  7 45  1  0
  7 46  1  0
 10 47  1  0
 13 48  1  0
 14 49  1  0
 16 50  1  0
 17 51  1  0
 18 52  1  0
 20 53  1  0
 21 54  1  0
 21 55  1  0
 21 56  1  0
 23 57  1  0
 23 58  1  0
 23 59  1  0
 27 60  1  0
 27 61  1  0
 28 62  1  0
 28 63  1  0
 29 64  1  0
 29 65  1  0
 30 66  1  0
 30 67  1  0
 31 68  1  0
 31 69  1  0
 33 70  1  0
 33 71  1  0
 34 72  1  0
 34 73  1  0
 34 74  1  0
 35 75  1  0
 35 76  1  0
 37 77  1  0
 38 78  1  0
 39 79  1  0
 40 80  1  0
 41 81  1  0
M  END
> <Name>
Molecule

> <Clean Energy>
67.6702

> <From>
www.bindingDB.org

> <BindingDB Reactant_set_id>
51080332

> <Ligand InChI>
InChI=1S/C34H40N2O4S/c1-4-39-34(38)25(3)19-24(2)20-29-23-41-33(35-29)31(36-32(37)28-13-9-6-10-14-28)21-26-15-17-30(18-16-26)40-22-27-11-7-5-8-12-27/h5,7-8,11-12,15-20,23,28,31H,4,6,9-10,13-14,21-22H2,
1-3H3,(H,36,37)/b24-20+,25-19-/t31-/m0/s1

> <Ligand InChI Key>
VQFDMIMZQWVEGS-DTALUSPLSA-N

> <BindingDB MonomerID>
50441774

> <BindingDB Ligand Name>
CHEMBL2436017

> <Target Name>
Tyrosine-protein phosphatase non-receptor type 1

> <Target Source Organism According to Curator or DataSource>
Homo sapiens

> <IC50 (nM)>
9320

> <Curation/DataSource>
ChEMBL

> <Article DOI>
10.1016/j.ejmech.2013.09.017

> <BindingDB Entry DOI>
10.7270/Q2VM4DP1

> <PMID>
24090912

> <Authors>
Chen, YT; Tang, CL; Ma, WP; Gao, LX; Wei, Y; Zhang, W; Li, JY; Li, J; Nan, FJ

> <Institution>
Chinese Academy of Sciences

> <Link to Ligand in BindingDB>
http://www.bindingdb.org/bind/chemsearch/marvin/MolStructure.jsp?monomerid=50441774

> <Link to Ligand-Target Pair in BindingDB>
http://www.bindingdb.org/jsp/dbsearch/PrimarySearch_ki.jsp?energyterm=kJ/mole&tag=pol&polymerid=2622&target=Tyrosine-protein+phosphatase+non-receptor+type+1&column=ki&startPg=0&Increment=50&submit=Sea
rch
http://www.bindingdb.org/jsp/dbsearch/PrimarySearch_ki.jsp?energyterm=kJ/mole&tag=r21&monomerid=50441774&enzyme=Tyrosine-protein+phosphatase+non-receptor+type+1&column=ki&startPg=0&Increment=50&submit
=Search

> <PubChem CID of Ligand>
25014222

> <PubChem SID of Ligand>
175454091

> <ChEMBL ID of Ligand>
CHEMBL2436017

> <ZINC ID of Ligand>
ZINC96285481

> <Number of Protein Chains in Target (bigger than 1 implies a multichain complex)>
1

> <BindingDB Target Chain Sequence>
MEMEKEFEQIDKSGSWAAIYQDIRHEASDFPCRVAKLPKNKNRNRYRDVSPFDHSRIKLHQEDNDYINASLIKMEEAQRSYILTQGPLPNTCGHFWEMVWEQKSRGVVMLNRVMEKGSLKCAQYWPQKEEKEMIFEDTNLKLTLISEDIKSYYTVRQLELENLTTQETREILHFHYTTWPDFGVPESPASFLNFLFKVRE
SGSLSPEHGPVVVHCSAGIGRSGTFCLADTCLLLMDKRKDPSSVDIKKVLLEMRKFRMGLIQTADQLRFSYLAVIEGAKFIMGDSSVQDQWKELSHEDLEPPPEHIPPPPRPPKRILEPHNGKCREFFPNHQWVKEETQEDKDCPIKEEKGSPLNAAPYGIESMSQDTEVRSRVVGGSLRGAQAASPAKGEPSLPEKDED
HALSYWKPFLVNMCVATVLTAGAYLCYRFLFNSNT

> <PDB ID(s) of Target Chain>
1BZJ,1G7G,1GFY,1JF7,1KAK,1KAV,1LQF,1NL9,1NNY,1NO6,1NZ7,1OEM,1OEO,1OES,1OET,1OEU,1OEV,1ONY,1ONZ,1PH0,1PXH,1PYN,1Q1M,1Q6J,1Q6M,1Q6N,1Q6P,1Q6S,1Q6T,1QXK,1SUG,1T48,1T49,1T4J,1WAX,1XBO,2AZR,2B07,2BGD,2BGE,
2CM2,2CM3,2CM7,2CM8,2CMA,2CMB,2CMC,2CNE,2CNF,2CNG,2CNH,2CNI,2F6T,2F6V,2F6W,2F6Y,2F6Z,2F70,2F71,2FJN,2H4G,2H4K,2HB1,2HNP,2HNQ,2QBP,2QBQ,2QBR,2QBS,2VEU,2VEV,2VEW,2VEX,2VEY,2ZMM,2ZN7,3A5J,3CWE,3D9C,3EAX,
3EB1,3EU0,3I7Z,3I80,3SME,4BJO,4I8N,4QBW,4Y14,5K9V,5K9W,5KA0,5KA1,5T19,6B90,6NTP,6W30,7KEY,7KLX,7LFO,7MN9,7MNA,8DU7,8G65,8G67,8G68,8G69,8G6A,8SKL

> <UniProt (SwissProt) Recommended Name of Target Chain>
Tyrosine-protein phosphatase non-receptor type 1

> <UniProt (SwissProt) Entry Name of Target Chain>
PTN1_HUMAN

> <UniProt (SwissProt) Primary ID of Target Chain>
P18031

> <UniProt (SwissProt) Secondary ID(s) of Target Chain>
Q5TGD8 Q9BQV9 Q9NQQ4

$$$$
