Molecule
  DSViewer          3D                             0

145146  0  0  0  0  0  0  0  0999 V2000
    9.1231   -2.9993   -0.1435 N   0  0
    7.6168    3.7781   -0.1328 N   0  0
    8.7201    2.9358   -0.4580 C   0  0
   10.2285    3.2424   -0.0743 C   0  0
    5.0506   -3.5613   -0.2053 C   0  0
    1.2385    1.3393   -0.0394 C   0  0
    7.7791   -3.7693   -0.2227 C   0  0  2  0  0  0
    6.4492   -2.8272    0.0298 C   0  0  2  0  0  0
    0.9607   -1.6490    0.1202 N   0  0
    3.8285   -2.9529    0.0121 N   0  0
   11.1930    2.2730    0.1538 N   0  0
    1.3869    2.6409    0.2718 N   0  0
   11.2949   -1.4054    0.1014 N   0  0
   10.3701   -3.5489   -0.3878 C   0  0
   11.7778   -0.2022   -0.2232 C   0  0
    1.2383   -2.8027   -0.5386 C   0  0
   -0.0370    0.6503    0.4386 C   0  0  2  0  0  0
   -0.2684   -0.7912   -0.2157 C   0  0  2  0  0  0
    6.3132    3.1488    0.0453 C   0  0
   11.6811   -2.6716   -0.3928 C   0  0  2  0  0  0
    7.7785   -4.9881    0.7263 C   0  0
   -2.2936   -5.8448   -0.1098 C   0  0
    2.5066    3.5115   -0.1061 C   0  0  1  0  0  0
   10.8846    0.8399    0.2386 C   0  0  1  0  0  0
    2.5509   -3.7132   -0.2959 C   0  0  2  0  0  0
   -1.6549   -1.4473    0.2888 C   0  0
    2.1596    4.9144    0.3945 C   0  0
   -5.3802   -1.0862   -0.2555 C   0  0
   -2.8718   -1.0118   -0.1480 C   0  0
   -4.2305   -1.6129    0.2511 C   0  0
   -3.2675   -6.6261   -0.3439 N   0  0
    5.0626   -4.7140   -0.6536 O   0  0
   10.5750    4.4132    0.1139 O   0  0
    2.0775    0.7298   -0.7133 O   0  0
   -6.8498   -1.6682   -0.0280 C   0  0  1  0  0  0
   10.4739   -4.7479   -0.6627 O   0  0
    0.4318   -3.1776   -1.3983 O   0  0
   12.7040   -0.0131   -1.0229 O   0  0
    8.4006    1.9440   -1.2949 C   0  0
   -8.1246   -0.6486    0.0462 C   0  0  2  0  0  0
    5.0688    3.9364    0.0038 C   0  0
    6.1760    1.9188    0.0292 O   0  0
   12.8545   -3.4571    0.3428 C   0  0
    6.7253   -5.3779    1.2424 O   0  0
    0.9708    5.2057    0.5542 O   0  0
    3.8911    2.9879    0.3898 C   0  0
   -9.3965   -1.5833    0.1541 C   0  0
   -1.1647   -6.2939    0.5624 N   0  0
   -2.3357   -4.5246   -0.5476 N   0  0
    8.9370   -5.7177    0.9647 O   0  0
    3.1243    5.8926    0.6394 O   0  0
    7.7587    5.2030    0.0153 C   0  0
    6.4619   -2.2241    1.4497 C   0  0
  -10.7634   -0.8744    0.1745 C   0  0
   -1.1661    1.6749    0.1653 C   0  0
   -8.3075    0.1873   -1.1399 O   0  0
    2.3724   -4.7805    0.8742 C   0  0
   14.2961   -2.7920    0.3139 C   0  0
   10.3985    0.4851    1.6528 C   0  0
   -4.2596   -2.8206    1.1509 C   0  0
   -7.1181   -2.5864   -1.2470 C   0  0
   -0.1714   -5.3216    0.8920 C   0  0
  -10.8741    0.4537    0.2359 C   0  0
  -11.9882   -1.6940    0.0929 C   0  0
   -7.3545    1.2611   -1.2431 C   0  0
    1.2450   -5.8630    0.6461 C   0  0
   14.4110   -1.5301    1.1923 C   0  0
   15.3324   -3.8034    0.8349 C   0  0
  -12.2050    1.0864    0.2254 C   0  0
  -13.1908   -1.1182    0.0776 C   0  0
  -13.3049    0.3381    0.1470 C   0  0
    9.0835   -1.9631    0.1204 H   0  0
    7.6998   -4.1603   -1.2371 H   0  0
    6.5018   -1.9973   -0.6749 H   0  0
    1.6196   -1.3264    0.8991 H   0  0
    3.7833   -1.9545    0.3942 H   0  0
   12.2099    2.5837    0.2737 H   0  0
    0.6082    3.0866    0.8548 H   0  0
   10.5129   -1.4105    0.8317 H   0  0
    0.0396    0.5183    1.5179 H   0  0
   -0.3187   -0.6727   -1.2981 H   0  0
   11.9800   -2.5383   -1.4325 H   0  0
    2.5403    3.5499   -1.1949 H   0  0
    9.9972    0.7228   -0.3835 H   0  0
    2.7258   -4.2728   -1.2148 H   0  0
   -1.6172   -2.2684    1.0047 H   0  0
   -5.2891   -0.1900   -0.8692 H   0  0
   -2.8822   -0.1675   -0.8373 H   0  0
   -4.1305   -6.2647   -0.8631 H   0  0
   -6.8439   -2.2815    0.8730 H   0  0
    7.3772    1.8446   -1.6568 H   0  0
    9.1634    1.2345   -1.6156 H   0  0
   -8.0478   -0.0216    0.9345 H   0  0
    5.1283    4.7613    0.7138 H   0  0
    4.9131    4.3310   -1.0003 H   0  0
   12.5673   -3.5738    1.3878 H   0  0
   12.9360   -4.4387   -0.1240 H   0  0
    4.0725    2.0090   -0.0539 H   0  0
    3.8600    2.8952    1.4754 H   0  0
   -9.3856   -2.2591   -0.7011 H   0  0
   -9.3077   -2.1600    1.0747 H   0  0
   -1.0439   -7.3247    0.8225 H   0  0
   -1.5066   -3.8735   -0.3645 H   0  0
   -3.1972   -4.1605   -1.0673 H   0  0
    9.2923   -6.1165    0.0607 H   0  0
    3.7918    5.5504    1.3742 H   0  0
    6.7919    5.6411    0.2631 H   0  0
    8.1225    5.6314   -0.9187 H   0  0
    8.4693    5.4168    0.8137 H   0  0
    7.4126   -1.7197    1.6223 H   0  0
    6.3347   -3.0196    2.1840 H   0  0
    5.6474   -1.5063    1.5474 H   0  0
   -2.1215    1.2565    0.4817 H   0  0
   -1.2036    1.8993   -0.9007 H   0  0
   -0.9689    2.5909    0.7223 H   0  0
    3.3202   -5.3047    0.9970 H   0  0
    2.1355   -4.2378    1.7894 H   0  0
   14.5440   -2.5303   -0.7148 H   0  0
   10.1729   -0.5801    1.7034 H   0  0
    9.4999    1.0576    1.8830 H   0  0
   11.1774    0.7258    2.3763 H   0  0
   -3.2426   -3.0800    1.4447 H   0  0
   -4.7089   -3.6596    0.6194 H   0  0
   -4.8485   -2.5973    2.0406 H   0  0
   -8.1126   -3.0240   -1.1610 H   0  0
   -6.3730   -3.3815   -1.2746 H   0  0
   -7.0577   -2.0005   -2.1642 H   0  0
   -0.3243   -4.4355    0.2759 H   0  0
   -0.2715   -5.0550    1.9441 H   0  0
   -9.9783    1.0720    0.2939 H   0  0
  -11.9089   -2.7800    0.0447 H   0  0
   -7.5523    1.8375   -2.1468 H   0  0
   -6.3462    0.8496   -1.2888 H   0  0
   -7.4423    1.9105   -0.3720 H   0  0
    1.4209   -6.6953    1.3276 H   0  0
    1.3070   -6.2162   -0.3832 H   0  0
   15.4225   -1.1299    1.1236 H   0  0
   14.1921   -1.7871    2.2287 H   0  0
   13.6998   -0.7800    0.8464 H   0  0
   16.3237   -3.3507    0.8167 H   0  0
   15.3267   -4.6897    0.2004 H   0  0
   15.0819   -4.0872    1.8571 H   0  0
  -12.2902    2.1716    0.2820 H   0  0
  -14.0887   -1.7329    0.0134 H   0  0
  -14.2872    0.8103    0.1346 H   0  0
  2  3  1  0  0  0
  3  4  1  0  0  0
  4 11  1  0  0  0
  8  5  1  0  0  0
 17  6  1  0  0  0
  7  1  1  0  0  0
  7  8  1  0  0  0
  9 16  1  0  0  0
 10  5  1  0  0  0
 24 11  1  0  0  0
 12  6  1  0  0  0
 20 13  1  0  0  0
 14  1  1  0  0  0
 15 13  1  0  0  0
 25 16  1  0  0  0
 17 18  1  0  0  0
 18  9  1  0  0  0
 19  2  1  0  0  0
 20 14  1  0  0  0
  7 21  1  0  0  0
 22 48  1  0  0  0
 23 12  1  0  0  0
 24 15  1  0  0  0
 25 10  1  0  0  0
 18 26  1  0  0  0
 23 27  1  0  0  0
 28 30  2  0  0  0
 29 26  2  0  0  0
 30 29  1  0  0  0
 31 22  2  0  0  0
 32  5  2  0  0  0
 33  4  2  0  0  0
 34  6  2  0  0  0
 35 28  1  0  0  0
 36 14  2  0  0  0
 37 16  2  0  0  0
 38 15  2  0  0  0
 39  3  2  0  0  0
 35 40  1  0  0  0
 41 19  1  0  0  0
 42 19  2  0  0  0
 20 43  1  0  0  0
 44 21  2  0  0  0
 45 27  2  0  0  0
 46 41  1  0  0  0
 40 47  1  0  0  0
 48 62  1  0  0  0
 49 22  1  0  0  0
 50 21  1  0  0  0
 51 27  1  0  0  0
 52  2  1  0  0  0
  8 53  1  0  0  0
 54 47  1  0  0  0
 17 55  1  0  0  0
 40 56  1  0  0  0
 25 57  1  0  0  0
 58 43  1  0  0  0
 24 59  1  0  0  0
 60 30  1  0  0  0
 35 61  1  0  0  0
 62 66  1  0  0  0
 63 54  2  0  0  0
 64 54  1  0  0  0
 65 56  1  0  0  0
 66 57  1  0  0  0
 67 58  1  0  0  0
 68 58  1  0  0  0
 69 63  1  0  0  0
 70 64  2  0  0  0
 71 70  1  0  0  0
 23 46  1  0  0  0
 69 71  2  0  0  0
  1 72  1  0  0  0
  7 73  1  0  0  0
  8 74  1  0  0  0
  9 75  1  0  0  0
 10 76  1  0  0  0
 11 77  1  0  0  0
 12 78  1  0  0  0
 13 79  1  0  0  0
 17 80  1  0  0  0
 18 81  1  0  0  0
 20 82  1  0  0  0
 23 83  1  0  0  0
 24 84  1  0  0  0
 25 85  1  0  0  0
 26 86  1  0  0  0
 28 87  1  0  0  0
 29 88  1  0  0  0
 31 89  1  0  0  0
 35 90  1  0  0  0
 39 91  1  0  0  0
 39 92  1  0  0  0
 40 93  1  0  0  0
 41 94  1  0  0  0
 41 95  1  0  0  0
 43 96  1  0  0  0
 43 97  1  0  0  0
 46 98  1  0  0  0
 46 99  1  0  0  0
 47100  1  0  0  0
 47101  1  0  0  0
 48102  1  0  0  0
 49103  1  0  0  0
 49104  1  0  0  0
 50105  1  0  0  0
 51106  1  0  0  0
 52107  1  0  0  0
 52108  1  0  0  0
 52109  1  0  0  0
 53110  1  0  0  0
 53111  1  0  0  0
 53112  1  0  0  0
 55113  1  0  0  0
 55114  1  0  0  0
 55115  1  0  0  0
 57116  1  0  0  0
 57117  1  0  0  0
 58118  1  0  0  0
 59119  1  0  0  0
 59120  1  0  0  0
 59121  1  0  0  0
 60122  1  0  0  0
 60123  1  0  0  0
 60124  1  0  0  0
 61125  1  0  0  0
 61126  1  0  0  0
 61127  1  0  0  0
 62128  1  0  0  0
 62129  1  0  0  0
 63130  1  0  0  0
 64131  1  0  0  0
 65132  1  0  0  0
 65133  1  0  0  0
 65134  1  0  0  0
 66135  1  0  0  0
 66136  1  0  0  0
 67137  1  0  0  0
 67138  1  0  0  0
 67139  1  0  0  0
 68140  1  0  0  0
 68141  1  0  0  0
 68142  1  0  0  0
 69143  1  0  0  0
 70144  1  0  0  0
 71145  1  0  0  0
M  END
> <From>
www.bindingDB.org

> <BindingDB Reactant_set_id>
50723759

> <Ligand InChI>
InChI=1S/C49H74N10O12/c1-26(2)23-37-46(66)58-40(48(69)70)30(6)42(62)55-35(17-14-22-52-49(50)51)45(65)54-34(19-18-27(3)24-28(4)38(71-10)25-33-15-12-11-13-16-33)29(5)41(61)56-36(47(67)68)20-21-39(60)59(
9)32(8)44(64)53-31(7)43(63)57-37/h11-13,15-16,18-19,24,26,28-31,34-38,40H,8,14,17,20-23,25H2,1-7,9-10H3,(H,53,64)(H,54,65)(H,55,62)(H,56,61)(H,57,63)(H,58,66)(H,67,68)(H,69,70)(H4,50,51,52)/b19-18+,27
-24+/t28-,29-,30-,31+,34-,35-,36+,37-,38-,40+/m0/s1

> <Ligand InChI Key>
ZYZCGGRZINLQBL-GWRQVWKTSA-N

> <BindingDB MonomerID>
50061067

> <BindingDB Ligand Name>
15-(3-Guanidino-propyl)-8-isobutyl-18-((1E,3E)-6-methoxy-3,5-dimethyl-7-phenyl-hepta-1,3-dienyl)-1,5,12,19-tetramethyl-2-methylene-3,6,9,13,16,20,25-heptaoxo-1,4,7,10,14,17,21heptaaza-cyclopentacosane
-11,22-dicarboxylic acid::15-(3-Guanidino-propyl)-8-isobutyl-18-(6-methoxy-3,5-dimethyl-7-phenyl-hepta-1,3-dienyl)-1,5,12,19-tetramethyl-2-methylene-3,6,9,13,16,20,25-heptaoxo-1,4,7,10,14,17,21heptaaz
a-cyclopentacosane-11,22-dicarboxylic acid::8-[3-amino(imino)methylaminopropyl]-15-isobutyl-5-[6-methoxy-3,5-dimethyl-7-phenyl-(1E,3E)-1,3-heptadienyl]-4,11,18,22-tetramethyl-21-methylene-3,7,10,14,17
,20,23-heptaoxo-2,6,9,13,16,19,22-heptaazacyclopentacosane-1,12-dicarboxylic acid::CHEMBL444092::Microcystin-LR

> <Target Name>
Tyrosine-protein phosphatase non-receptor type 1

> <Target Source Organism According to Curator or DataSource>
Homo sapiens

> <IC50 (nM)>
0.1

> <Curation/DataSource>
ChEMBL

> <Article DOI>
10.1016/S0960-894X(00)80281-4

> <BindingDB Entry DOI>
10.7270/Q2125T5P

> <Authors>
Quinn, RJ; Taylor, C; Suganuma, M; Fujiki, H

> <Institution>
TBA

> <Link to Ligand in BindingDB>
http://www.bindingdb.org/bind/chemsearch/marvin/MolStructure.jsp?monomerid=50061067

> <Link to Ligand-Target Pair in BindingDB>
http://www.bindingdb.org/jsp/dbsearch/PrimarySearch_ki.jsp?energyterm=kJ/mole&tag=r21&monomerid=50061067&enzyme=Tyrosine-protein+phosphatase+non-receptor+type+1&column=ki&startPg=0&Increment=50&submit
=Search

> <PubChem CID of Ligand>
445434

> <PubChem SID of Ligand>
103956654

> <ChEMBL ID of Ligand>
CHEMBL444092

> <KEGG ID of Ligand>
C05371

> <Number of Protein Chains in Target (bigger than 1 implies a multichain complex)>
1

> <BindingDB Target Chain Sequence>
MEMEKEFEQIDKSGSWAAIYQDIRHEASDFPCRVAKLPKNKNRNRYRDVSPFDHSRIKLHQEDNDYINASLIKMEEAQRSYILTQGPLPNTCGHFWEMVWEQKSRGVVMLNRVMEKGSLKCAQYWPQKEEKEMIFEDTNLKLTLISEDIKSYYTVRQLELENLTTQETREILHFHYTTWPDFGVPESPASFLNFLFKVRE
SGSLSPEHGPVVVHCSAGIGRSGTFCLADTCLLLMDKRKDPSSVDIKKVLLEMRKFRMGLIQTADQLRFSYLAVIEGAKFIMGDSSVQDQWKELSHEDLEPPPEHIPPPPRPPKRILEPHNGKCREFFPNHQWVKEETQEDKDCPIKEEKGSPLNAAPYGIESMSQDTEVRSRVVGGSLRGAQAASPAKGEPSLPEKDED
HALSYWKPFLVNMCVATVLTAGAYLCYRFLFNSNT

> <PDB ID(s) of Target Chain>
1BZJ,1G7G,1GFY,1JF7,1KAK,1KAV,1LQF,1NL9,1NNY,1NO6,1NZ7,1OEM,1OEO,1OES,1OET,1OEU,1OEV,1ONY,1ONZ,1PH0,1PXH,1PYN,1Q1M,1Q6J,1Q6M,1Q6N,1Q6P,1Q6S,1Q6T,1QXK,1SUG,1T48,1T49,1T4J,1WAX,1XBO,2AZR,2B07,2BGD,2BGE,
2CM2,2CM3,2CM7,2CM8,2CMA,2CMB,2CMC,2CNE,2CNF,2CNG,2CNH,2CNI,2F6T,2F6V,2F6W,2F6Y,2F6Z,2F70,2F71,2FJN,2H4G,2H4K,2HB1,2HNP,2HNQ,2QBP,2QBQ,2QBR,2QBS,2VEU,2VEV,2VEW,2VEX,2VEY,2ZMM,2ZN7,3A5J,3CWE,3D9C,3EAX,
3EB1,3EU0,3I7Z,3I80,3SME,4BJO,4I8N,4QBW,4Y14,5K9V,5K9W,5KA0,5KA1,5T19,6B90,6NTP,6W30,7KEY,7KLX,7LFO,7MN9,7MNA,8DU7,8G65,8G67,8G68,8G69,8G6A,8SKL

> <UniProt (SwissProt) Recommended Name of Target Chain>
Tyrosine-protein phosphatase non-receptor type 1

> <UniProt (SwissProt) Entry Name of Target Chain>
PTN1_HUMAN

> <UniProt (SwissProt) Primary ID of Target Chain>
P18031

> <UniProt (SwissProt) Secondary ID(s) of Target Chain>
Q5TGD8 Q9BQV9 Q9NQQ4

> <Clean Energy>
203.807

$$$$
Molecule
  SciTegic10242319433D

151153  0  0  0  0            999 V2000
   -7.4548   -1.5662   -0.0062 C   0  0  2  0  0  0
   -5.8460   -0.0573    0.6614 C   0  0
   -4.6279   -1.0306    0.2796 C   0  0  2  0  0  0
   -4.9893   -2.5318    0.0963 C   0  0  2  0  0  0
   -6.4368   -2.6670    0.5655 O   0  0
    2.3201    6.9734    0.1619 C   0  0  2  0  0  0
    0.9231    7.9045   -0.1736 C   0  0  2  0  0  0
    3.6612    7.8610   -0.1982 C   0  0
    4.9428    7.1799    0.1769 O   0  0
    6.1378    7.9418   -0.0790 C   0  0
    2.4172    5.5879   -0.5701 N   0  0
    1.0195    9.0756    0.6580 O   0  0
   -0.5415    7.1594    0.1297 C   0  0  2  0  0  0
   -0.7424    6.0552   -0.7385 O   0  0
   -1.8996    7.9553   -0.0059 C   0  0
   -3.1262    7.2781    0.0246 N   0  0
   -1.8704    9.1836   -0.0973 O   0  0
   -4.5264    7.9682   -0.0759 C   0  0
   -5.8798    7.0027    0.1639 C   0  0
   -7.3355    7.7778   -0.0615 C   0  0  1  0  0  0
   -8.7262    6.8693    0.0139 C   0  0
   -7.4491    9.0372    0.8477 C   0  0
   -8.8081    5.5782   -0.0466 N   0  0
  -10.2206    5.1980   -0.0431 C   0  0
  -10.9442    6.3265    0.0272 C   0  0
  -10.0325    7.4020    0.0577 O   0  0
  -10.8380    3.7081   -0.0258 C   0  0
  -10.1282    2.5361   -0.0904 C   0  0
  -10.8069    1.0699    0.1996 C   0  0
   -9.8605   -0.3222   -0.0680 C   0  0  1  0  0  0
   -8.4974   -0.4642    0.6099 O   0  0
   -8.2741   -2.8582    0.5859 C   0  0
   -9.6152   -2.9533   -0.1214 C   0  0  2  0  0  0
  -10.5502   -1.7364    0.2587 C   0  0  2  0  0  0
  -11.8875   -1.8744   -0.5002 C   0  0
   -4.7561    1.0403   -0.2082 C   0  0
   -6.7733    0.9005   -0.0758 C   0  0
   -3.3542   -0.6766    0.9587 O   0  0
   -2.0972   -0.7408    0.0111 P   0  0
   -1.0197   -1.2056    0.7524 O   0  0
   -2.4950   -1.5609   -1.2771 O   0  0
   -1.6776    0.5806   -0.5403 O   0  0
   -3.8625   -3.8529    0.5889 C   0  0  2  0  0  0
   -2.2360   -3.6343    0.3063 C   0  0
   -4.4096   -5.0082   -0.1876 O   0  0
   -3.8298   -6.3370   -0.0277 C   0  0
   -1.0991   -4.6639    0.0174 C   0  0  1  0  0  0
    0.3615   -4.0759    0.1298 C   0  0  2  0  0  0
   -1.1886   -5.7054    0.9317 O   0  0
    0.4127   -2.8808   -0.8636 C   0  0
    1.5185   -5.2387   -0.1683 C   0  0  1  0  0  0
    3.6191    4.8542   -0.2383 C   0  0
    1.4488    4.5998   -0.1178 C   0  0
  -10.2021   -4.1601    0.3280 O   0  0
    3.1031   -4.7224    0.0857 C   0  0  2  0  0  0
    1.2497   -6.3202    0.7343 O   0  0
    3.4198   -3.5513   -0.8808 C   0  0
    4.3590   -5.8233   -0.0325 C   0  0
    5.7328   -5.5334    0.0147 C   0  0
    6.8825   -6.6322   -0.0360 C   0  0
    6.2808   -4.1202    0.1765 C   0  0
    8.2174   -6.2701   -0.0135 C   0  0
    6.5097   -8.0807   -0.0612 C   0  0
    9.4813   -7.2698   -0.0210 C   0  0
   10.7958   -6.8572   -0.0045 C   0  0
   12.0288   -7.8463   -0.0006 C   0  0
   13.3398   -7.4681    0.0065 C   0  0
   11.7851   -9.3378    0.0019 C   0  0
   13.8647   -6.0924   -0.0077 C   0  0
   14.3134   -5.0263    0.0039 N   0  0
   -4.4199   -0.7286   -0.7469 H   0  0
   -5.0600   -2.6469   -0.9853 H   0  0
    2.3343    6.7790    1.2343 H   0  0
    0.9499    8.2132   -1.2187 H   0  0
    3.6032    8.8081    0.3383 H   0  0
    3.6720    8.0509   -1.2715 H   0  0
    7.0101    7.3638    0.2259 H   0  0
    6.1038    8.8729    0.4866 H   0  0
    6.2053    8.1661   -1.1436 H   0  0
    0.2306    9.7310    0.4333 H   0  0
   -0.4986    6.7665    1.1455 H   0  0
   -0.7346    6.3868   -1.7348 H   0  0
   -3.1034    6.2130    0.1237 H   0  0
   -4.5544    8.7622    0.6704 H   0  0
   -4.6066    8.4026   -1.0724 H   0  0
   -5.8286    6.1670   -0.5340 H   0  0
   -5.8508    6.6254    1.1861 H   0  0
   -7.3000    8.1628   -1.0806 H   0  0
   -8.4103    9.5226    0.6784 H   0  0
   -6.6445    9.7325    0.6085 H   0  0
   -7.3724    8.7392    1.8934 H   0  0
  -12.0315    6.3980    0.0553 H   0  0
  -11.9225    3.6245    0.0438 H   0  0
   -9.0692    2.5803   -0.3450 H   0  0
  -11.1126    1.0566    1.2458 H   0  0
  -11.6873    0.9895   -0.4378 H   0  0
   -9.6574   -0.3363   -1.1388 H   0  0
   -7.7009   -3.7681    0.4082 H   0  0
   -8.4330   -2.7316    1.6568 H   0  0
   -9.4672   -2.9885   -1.2007 H   0  0
  -10.7552   -1.7806    1.3283 H   0  0
  -12.3405   -2.8379   -0.2671 H   0  0
  -11.7055   -1.8091   -1.5730 H   0  0
  -12.5621   -1.0736   -0.1972 H   0  0
   -3.7219    0.7634   -0.0040 H   0  0
   -4.9299    2.0640    0.1235 H   0  0
   -4.9461    0.9687   -1.2792 H   0  0
   -7.8099    0.6409    0.1389 H   0  0
   -6.5953    0.8258   -1.1486 H   0  0
   -6.5791    1.9211    0.2541 H   0  0
   -2.7876   -2.5302   -0.9990 H   0  0
   -2.4643    0.9923   -1.1009 H   0  0
   -4.0055   -4.0514    1.6511 H   0  0
   -2.2082   -2.9667   -0.5549 H   0  0
   -1.8869   -3.1018    1.1910 H   0  0
   -4.3563   -7.0433   -0.6696 H   0  0
   -3.9232   -6.6521    1.0116 H   0  0
   -2.7762   -6.3101   -0.3055 H   0  0
   -1.2381   -5.0662   -0.9860 H   0  0
    0.5054   -3.6939    1.1405 H   0  0
   -1.0838   -5.3269    1.9055 H   0  0
    1.4029   -2.4261   -0.8351 H   0  0
   -0.3350   -2.1400   -0.5804 H   0  0
    0.2062   -3.2375   -1.8728 H   0  0
    1.4160   -5.5928   -1.1941 H   0  0
    3.6267    3.9061   -0.7760 H   0  0
    3.6442    4.6630    0.8345 H   0  0
    4.4932    5.4398   -0.5232 H   0  0
    1.5865    3.6736   -0.6755 H   0  0
    0.4396    4.9768   -0.2840 H   0  0
    1.5941    4.4082    0.9454 H   0  0
   -9.5801   -4.9676    0.0757 H   0  0
    3.1403   -4.3132    1.0952 H   0  0
    1.3115   -5.9744    1.7238 H   0  0
    4.4438   -3.2139   -0.7203 H   0  0
    2.7323   -2.7270   -0.6912 H   0  0
    3.3064   -3.8889   -1.9110 H   0  0
    4.0830   -6.8702   -0.1587 H   0  0
    7.3702   -4.1512    0.1852 H   0  0
    5.9224   -3.6962    1.1146 H   0  0
    5.9420   -3.5013   -0.6543 H   0  0
    8.4360   -5.2026    0.0117 H   0  0
    7.4138   -8.6885   -0.0952 H   0  0
    5.9021   -8.2847   -0.9429 H   0  0
    5.9412   -8.3258    0.8359 H   0  0
    9.2836   -8.3416   -0.0404 H   0  0
   10.9972   -5.7860    0.0066 H   0  0
   14.0776   -8.2703    0.0245 H   0  0
   12.7404   -9.8626    0.0044 H   0  0
   11.2209   -9.6157   -0.8884 H   0  0
   11.2180   -9.6123    0.8913 H   0  0
  8  9  1  0
 34 35  1  0
 16 18  1  0
  2 36  1  0
  4  5  1  0
  2 37  1  0
 18 19  1  0
  3 38  1  0
  9 10  1  0
 38 39  1  0
 20 19  1  0
 39 40  2  0
  1  5  1  0
 39 41  1  0
 20 21  1  0
 39 42  1  0
  6 11  1  0
  4 43  1  0
 20 22  1  0
 43 44  1  0
 21 23  2  0
 43 45  1  0
  1  2  1  0
 45 46  1  0
  7 12  1  0
 47 44  1  0
 48 47  1  0
  7 13  1  0
 47 49  1  0
 23 24  1  0
 48 50  1  0
 24 25  2  0
 48 51  1  0
 25 26  1  0
 11 52  1  0
 26 21  1  0
 11 53  1  0
  7  6  1  0
 33 54  1  0
 24 27  1  0
 51 55  1  0
 13 14  1  0
 51 56  1  0
 27 28  2  0
 55 57  1  0
  3  2  1  0
 55 58  1  0
 28 29  1  0
 58 59  2  0
 13 15  1  0
 59 60  1  0
 30 29  1  0
 59 61  1  0
 30 31  1  0
 60 62  2  0
  6  8  1  0
 60 63  1  0
 15 16  1  0
 62 64  1  0
  4  3  1  0
 64 65  2  0
 15 17  2  0
 65 66  1  0
 34 30  1  0
 66 67  2  0
  1 31  1  0
 66 68  1  0
  1 32  1  0
 67 69  1  0
 33 32  1  0
 69 70  3  0
 34 33  1  0
  3 71  1  0
  4 72  1  0
  6 73  1  0
  7 74  1  0
  8 75  1  0
  8 76  1  0
 10 77  1  0
 10 78  1  0
 10 79  1  0
 12 80  1  0
 13 81  1  0
 14 82  1  0
 16 83  1  0
 18 84  1  0
 18 85  1  0
 19 86  1  0
 19 87  1  0
 20 88  1  0
 22 89  1  0
 22 90  1  0
 22 91  1  0
 25 92  1  0
 27 93  1  0
 28 94  1  0
 29 95  1  0
 29 96  1  0
 30 97  1  0
 32 98  1  0
 32 99  1  0
 33100  1  0
 34101  1  0
 35102  1  0
 35103  1  0
 35104  1  0
 36105  1  0
 36106  1  0
 36107  1  0
 37108  1  0
 37109  1  0
 37110  1  0
 41111  1  0
 42112  1  0
 43113  1  0
 44114  1  0
 44115  1  0
 46116  1  0
 46117  1  0
 46118  1  0
 47119  1  0
 48120  1  0
 49121  1  0
 50122  1  0
 50123  1  0
 50124  1  0
 51125  1  0
 52126  1  0
 52127  1  0
 52128  1  0
 53129  1  0
 53130  1  0
 53131  1  0
 54132  1  0
 55133  1  0
 56134  1  0
 57135  1  0
 57136  1  0
 57137  1  0
 58138  1  0
 61139  1  0
 61140  1  0
 61141  1  0
 62142  1  0
 63143  1  0
 63144  1  0
 63145  1  0
 64146  1  0
 65147  1  0
 67148  1  0
 68149  1  0
 68150  1  0
 68151  1  0
M  END
> <Name>
Molecule

> <Clean Energy>
611.83

> <From>
www.bindingDB.org

> <BindingDB Reactant_set_id>
50723761

> <Ligand InChI>
InChI=1S/C50H81N4O15P/c1-29(20-22-51)16-14-17-30(2)32(4)24-33(5)42(57)35(7)38(55)25-41(65-13)45-46(69-70(61,62)63)49(8,9)50(68-45)26-39(56)34(6)40(67-50)19-15-18-36-27-66-48(53-36)31(3)21-23-52-47(60)
44(59)43(58)37(28-64-12)54(10)11/h14-18,20,24,27,31,33-35,37-46,55-59H,19,21,23,25-26,28H2,1-13H3,(H,52,60)(H2,61,62,63)/b16-14+,18-15+,29-20-,30-17+,32-24+/t31-,33+,34-,35-,37-,38-,39+,40-,41-,42+,43
-,44-,45+,46-,50+/m0/s1

> <Ligand InChI Key>
FKAWLXNLHHIHLA-YCBIHMBMSA-N

> <BindingDB MonomerID>
50110681

> <BindingDB Ligand Name>
CHEMBL430266::Calyculin-A

> <Target Name>
Tyrosine-protein phosphatase non-receptor type 1

> <Target Source Organism According to Curator or DataSource>
Homo sapiens

> <IC50 (nM)>
0.3

> <Curation/DataSource>
ChEMBL

> <Article DOI>
10.1016/S0960-894X(00)80281-4

> <BindingDB Entry DOI>
10.7270/Q2125T5P

> <Authors>
Quinn, RJ; Taylor, C; Suganuma, M; Fujiki, H

> <Institution>
TBA

> <Link to Ligand in BindingDB>
http://www.bindingdb.org/bind/chemsearch/marvin/MolStructure.jsp?monomerid=50110681

> <Link to Ligand-Target Pair in BindingDB>
http://www.bindingdb.org/jsp/dbsearch/PrimarySearch_ki.jsp?energyterm=kJ/mole&tag=pol&polymerid=2622&target=Tyrosine-protein+phosphatase+non-receptor+type+1&column=ki&startPg=0&Increment=50&submit=Sea
rch
http://www.bindingdb.org/jsp/dbsearch/PrimarySearch_ki.jsp?energyterm=kJ/mole&tag=r21&monomerid=50110681&enzyme=Tyrosine-protein+phosphatase+non-receptor+type+1&column=ki&startPg=0&Increment=50&submit
=Search

> <PubChem CID of Ligand>
5311365

> <PubChem SID of Ligand>
104005414

> <ChEMBL ID of Ligand>
CHEMBL430266

> <Number of Protein Chains in Target (bigger than 1 implies a multichain complex)>
1

> <BindingDB Target Chain Sequence>
MEMEKEFEQIDKSGSWAAIYQDIRHEASDFPCRVAKLPKNKNRNRYRDVSPFDHSRIKLHQEDNDYINASLIKMEEAQRSYILTQGPLPNTCGHFWEMVWEQKSRGVVMLNRVMEKGSLKCAQYWPQKEEKEMIFEDTNLKLTLISEDIKSYYTVRQLELENLTTQETREILHFHYTTWPDFGVPESPASFLNFLFKVRE
SGSLSPEHGPVVVHCSAGIGRSGTFCLADTCLLLMDKRKDPSSVDIKKVLLEMRKFRMGLIQTADQLRFSYLAVIEGAKFIMGDSSVQDQWKELSHEDLEPPPEHIPPPPRPPKRILEPHNGKCREFFPNHQWVKEETQEDKDCPIKEEKGSPLNAAPYGIESMSQDTEVRSRVVGGSLRGAQAASPAKGEPSLPEKDED
HALSYWKPFLVNMCVATVLTAGAYLCYRFLFNSNT

> <PDB ID(s) of Target Chain>
1BZJ,1G7G,1GFY,1JF7,1KAK,1KAV,1LQF,1NL9,1NNY,1NO6,1NZ7,1OEM,1OEO,1OES,1OET,1OEU,1OEV,1ONY,1ONZ,1PH0,1PXH,1PYN,1Q1M,1Q6J,1Q6M,1Q6N,1Q6P,1Q6S,1Q6T,1QXK,1SUG,1T48,1T49,1T4J,1WAX,1XBO,2AZR,2B07,2BGD,2BGE,
2CM2,2CM3,2CM7,2CM8,2CMA,2CMB,2CMC,2CNE,2CNF,2CNG,2CNH,2CNI,2F6T,2F6V,2F6W,2F6Y,2F6Z,2F70,2F71,2FJN,2H4G,2H4K,2HB1,2HNP,2HNQ,2QBP,2QBQ,2QBR,2QBS,2VEU,2VEV,2VEW,2VEX,2VEY,2ZMM,2ZN7,3A5J,3CWE,3D9C,3EAX,
3EB1,3EU0,3I7Z,3I80,3SME,4BJO,4I8N,4QBW,4Y14,5K9V,5K9W,5KA0,5KA1,5T19,6B90,6NTP,6W30,7KEY,7KLX,7LFO,7MN9,7MNA,8DU7,8G65,8G67,8G68,8G69,8G6A,8SKL

> <UniProt (SwissProt) Recommended Name of Target Chain>
Tyrosine-protein phosphatase non-receptor type 1

> <UniProt (SwissProt) Entry Name of Target Chain>
PTN1_HUMAN

> <UniProt (SwissProt) Primary ID of Target Chain>
P18031

> <UniProt (SwissProt) Secondary ID(s) of Target Chain>
Q5TGD8 Q9BQV9 Q9NQQ4

$$$$
Molecule
  SciTegic10242319433D

119120  0  0  0  0            999 V2000
   17.3272   -6.4030    0.1595 N   0  0
   17.2796   -5.2348   -0.4875 C   0  0
   17.3768   -2.7969   -0.3085 N   0  0
   18.1093   -4.0657   -0.1373 C   0  0
   13.5662   -7.5024   -0.0867 C   0  0
    9.9359   -2.5268   -0.1343 C   0  0
   16.2440   -7.3482   -0.1590 C   0  0  2  0  0  0
   14.8109   -6.7300    0.3058 C   0  0  2  0  0  0
    9.6535   -5.5062    0.0509 N   0  0
   12.3468   -6.9059    0.0411 N   0  0
   11.1524   -2.6992    0.3862 N   0  0
    9.8557   -6.6890   -0.5793 C   0  0
    8.7040   -3.2006    0.4424 C   0  0  2  0  0  0
    8.4401   -4.6253   -0.2348 C   0  0  2  0  0  0
   16.0012   -2.8005    0.1749 C   0  0
   16.5518   -8.6931    0.4689 C   0  0
    6.3747   -9.5915   -0.1385 C   0  0
   12.2833   -1.9111   -0.1213 C   0  0  1  0  0  0
   11.1356   -7.6232   -0.3469 C   0  0  2  0  0  0
    7.0840   -5.2776    0.3040 C   0  0
   12.1707   -0.4995    0.4552 C   0  0
    3.3925   -4.9193   -0.2709 C   0  0
    5.8722   -4.8731   -0.1606 C   0  0
    4.5279   -5.4491    0.2530 C   0  0
    5.3643  -10.3145   -0.3972 N   0  0
   16.3890   -5.0598   -1.3220 O   0  0
   13.6665   -8.6382   -0.5660 O   0  0
    9.7848   -1.6994   -1.0412 O   0  0
    1.9258   -5.4645   -0.0366 C   0  0  1  0  0  0
   19.3643   -4.2340    0.3140 C   0  0
    9.0088   -7.0612   -1.3996 O   0  0
    0.6838   -4.4161    0.0394 C   0  0  2  0  0  0
   14.9488   -1.8601   -0.2750 C   0  0
   15.5815   -3.7692    0.8102 O   0  0
   15.6501   -9.3999    0.9328 O   0  0
   11.0720   -0.0835    0.8373 O   0  0
   13.6368   -2.5756    0.2377 C   0  0
   -0.5984   -5.3276    0.1546 C   0  0
    7.4356  -10.0955    0.5879 N   0  0
    6.4352   -8.2787   -0.5998 N   0  0
   17.8750   -9.1155    0.5697 O   0  0
   13.2758    0.3331    0.5779 O   0  0
   17.9119   -1.6253   -0.9795 C   0  0
   14.7850   -6.5326    1.8395 C   0  0
   -1.9492   -4.6018    0.1771 C   0  0
    7.5451   -2.2070    0.1815 C   0  0
    0.5152   -3.5776   -1.1486 O   0  0
   10.9562   -8.7087    0.7962 C   0  0
    4.4883   -6.6317    1.1860 C   0  0
    1.6345   -6.3788   -1.2522 C   0  0
   20.3145   -3.1307    0.7404 C   0  0
    8.4641   -9.1862    0.9347 C   0  0
   -2.0414   -3.2725    0.2372 C   0  0
   -3.1817   -5.4061    0.0979 C   0  0
    1.4892   -2.5211   -1.2567 C   0  0
    9.8296   -9.7526    0.5614 C   0  0
   -3.3633   -2.6236    0.2277 C   0  0
   -4.3767   -4.8162    0.0832 C   0  0
   -4.4723   -3.3588    0.1512 C   0  0
   18.1002   -6.6358    0.8617 H   0  0
   16.2191   -7.4795   -1.2408 H   0  0
   14.7284   -5.7410   -0.1449 H   0  0
   10.3702   -5.1781    0.7746 H   0  0
   12.2773   -5.9102    0.4265 H   0  0
   11.3038   -3.4100    1.1715 H   0  0
    8.8332   -3.3302    1.5170 H   0  0
    8.3559   -4.4880   -1.3128 H   0  0
   12.2041   -1.8498   -1.2067 H   0  0
   11.3411   -8.1488   -1.2794 H   0  0
    7.1319   -6.0624    1.0589 H   0  0
    3.5011   -4.0419   -0.9085 H   0  0
    5.8639   -4.0659   -0.8930 H   0  0
    4.5487   -9.9122   -0.9610 H   0  0
    1.9216   -6.0748    0.8666 H   0  0
   19.7333   -5.2576    0.3796 H   0  0
    0.7776   -3.7906    0.9271 H   0  0
   15.0708   -0.8789    0.1836 H   0  0
   14.9464   -1.7569   -1.3601 H   0  0
   13.6969   -2.6315    1.3246 H   0  0
   13.6284   -3.5830   -0.1785 H   0  0
   -0.6006   -6.0064   -0.6983 H   0  0
   -0.5151   -5.9024    1.0769 H   0  0
    7.4784  -11.1253    0.8754 H   0  0
    7.2946   -7.6769   -0.3897 H   0  0
    5.6222   -7.8720   -1.1642 H   0  0
   18.2979   -9.1754   -0.3895 H   0  0
   13.9882   -0.1197    1.2025 H   0  0
   17.1688   -0.8280   -0.9673 H   0  0
   18.1570   -1.8772   -2.0113 H   0  0
   18.8120   -1.2902   -0.4640 H   0  0
   15.6708   -5.9785    2.1501 H   0  0
   14.7744   -7.5052    2.3314 H   0  0
   13.8914   -5.9746    2.1195 H   0  0
    7.7685   -1.2536    0.6603 H   0  0
    6.6198   -2.6112    0.5923 H   0  0
    7.4301   -2.0558   -0.8918 H   0  0
   11.8977   -9.2487    0.8962 H   0  0
   10.7376   -8.1833    1.7259 H   0  0
    5.5032   -6.8927    1.4859 H   0  0
    4.0305   -7.4806    0.6782 H   0  0
    3.9026   -6.3785    2.0698 H   0  0
    0.6317   -6.7961   -1.1617 H   0  0
    2.3633   -7.1889   -1.2811 H   0  0
    1.7033   -5.7959   -2.1707 H   0  0
   21.2605   -3.5682    1.0592 H   0  0
   19.8760   -2.5724    1.5675 H   0  0
   20.4906   -2.4577   -0.0988 H   0  0
    8.3076   -8.2483    0.4017 H   0  0
    8.4335   -9.0037    2.0089 H   0  0
   -1.1375   -2.6659    0.2934 H   0  0
   -3.1154   -6.4931    0.0510 H   0  0
    1.3000   -1.9429   -2.1611 H   0  0
    2.4894   -2.9518   -1.3040 H   0  0
    1.4159   -1.8683   -0.3869 H   0  0
   10.0280  -10.6329    1.1729 H   0  0
    9.8211  -10.0353   -0.4912 H   0  0
   -3.4351   -1.5374    0.2835 H   0  0
   -5.2821   -5.4198    0.0206 H   0  0
   -5.4487   -2.8745    0.1392 H   0  0
  2  1  1  0
  3  4  1  0
  4  2  1  0
  8  5  1  0
  6 11  1  0
  7  1  1  0
  7  8  1  0
  9 12  1  0
 10  5  1  0
 18 11  1  0
 19 12  1  0
 13 14  1  0
 14  9  1  0
 15  3  1  0
  7 16  1  0
 17 39  1  0
 18 37  1  0
 19 10  1  0
 14 20  1  0
 18 21  1  0
 22 24  2  0
 23 20  2  0
 24 23  1  0
 25 17  2  0
 26  2  2  0
 27  5  2  0
 28  6  2  0
 29 22  1  0
 30  4  2  0
 31 12  2  0
 29 32  1  0
 33 15  1  0
 34 15  2  0
 35 16  2  0
 36 21  2  0
 37 33  1  0
 32 38  1  0
 39 52  1  0
 40 17  1  0
 41 16  1  0
 42 21  1  0
 43  3  1  0
  8 44  1  0
 45 38  1  0
 13 46  1  0
 32 47  1  0
 19 48  1  0
 49 24  1  0
 29 50  1  0
 51 30  1  0
 52 56  1  0
 53 45  2  0
 54 45  1  0
 55 47  1  0
 56 48  1  0
 57 53  1  0
 58 54  2  0
 59 58  1  0
 13  6  1  0
 59 57  2  0
  1 60  1  0
  7 61  1  0
  8 62  1  0
  9 63  1  0
 10 64  1  0
 11 65  1  0
 13 66  1  0
 14 67  1  0
 18 68  1  0
 19 69  1  0
 20 70  1  0
 22 71  1  0
 23 72  1  0
 25 73  1  0
 29 74  1  0
 30 75  1  0
 32 76  1  0
 33 77  1  0
 33 78  1  0
 37 79  1  0
 37 80  1  0
 38 81  1  0
 38 82  1  0
 39 83  1  0
 40 84  1  0
 40 85  1  0
 41 86  1  0
 42 87  1  0
 43 88  1  0
 43 89  1  0
 43 90  1  0
 44 91  1  0
 44 92  1  0
 44 93  1  0
 46 94  1  0
 46 95  1  0
 46 96  1  0
 48 97  1  0
 48 98  1  0
 49 99  1  0
 49100  1  0
 49101  1  0
 50102  1  0
 50103  1  0
 50104  1  0
 51105  1  0
 51106  1  0
 51107  1  0
 52108  1  0
 52109  1  0
 53110  1  0
 54111  1  0
 55112  1  0
 55113  1  0
 55114  1  0
 56115  1  0
 56116  1  0
 57117  1  0
 58118  1  0
 59119  1  0
M  END
> <Name>
Molecule

> <Clean Energy>
149.342

> <From>
www.bindingDB.org

> <BindingDB Reactant_set_id>
50048441

> <Ligand InChI>
InChI=1S/C41H60N8O10/c1-8-31-38(54)48-34(40(57)58)26(5)36(52)46-29(15-12-20-44-41(42)43)37(53)45-28(25(4)35(51)47-30(39(55)56)18-19-33(50)49(31)6)17-16-23(2)21-24(3)32(59-7)22-27-13-10-9-11-14-27/h8-1
1,13-14,16-17,21,24-26,28-30,32,34H,12,15,18-20,22H2,1-7H3,(H,45,53)(H,46,52)(H,47,51)(H,48,54)(H,55,56)(H,57,58)(H4,42,43,44)/b17-16+,23-21+,31-8-/t24-,25-,26-,28-,29-,30+,32-,34+/m0/s1

> <Ligand InChI Key>
IXBQSRWSVIBXNC-HSKGSTCASA-N

> <BindingDB MonomerID>
50061066

> <BindingDB Ligand Name>
(5R,6S,9S,12S,13S,16R)-2-Eth-(Z)-ylidene-9-(3-guanidino-propyl)-12-((1E,3E)-(5S,6S)-6-methoxy-3,5-dimethyl-7-phenyl-hepta-1,3-dienyl)-1,6,13-trimethyl-3,7,10,14,19-pentaoxo-1,4,8,11,15pentaaza-cyclono
nadecane-5,16-dicarboxylic acid::CHEMBL108308

> <Target Name>
Tyrosine-protein phosphatase non-receptor type 1

> <Target Source Organism According to Curator or DataSource>
Homo sapiens

> <IC50 (nM)>
0.42

> <Curation/DataSource>
ChEMBL

> <Article DOI>
10.1021/jm960873x

> <BindingDB Entry DOI>
10.7270/Q25Q4WS0

> <PMID>
9379439

> <Authors>
Gupta, V; Ogawa, AK; Du, X; Houk, KN; Armstrong, RW

> <Institution>
University of California

> <Link to Ligand in BindingDB>
http://www.bindingdb.org/bind/chemsearch/marvin/MolStructure.jsp?monomerid=50061066

> <Link to Ligand-Target Pair in BindingDB>
http://www.bindingdb.org/jsp/dbsearch/PrimarySearch_ki.jsp?energyterm=kJ/mole&tag=pol&polymerid=2622&target=Tyrosine-protein+phosphatase+non-receptor+type+1&column=ki&startPg=0&Increment=50&submit=Sea
rch
http://www.bindingdb.org/jsp/dbsearch/PrimarySearch_ki.jsp?energyterm=kJ/mole&tag=r21&monomerid=50061066&enzyme=Tyrosine-protein+phosphatase+non-receptor+type+1&column=ki&startPg=0&Increment=50&submit
=Search

> <PubChem CID of Ligand>
14217092

> <PubChem SID of Ligand>
103956653

> <ChEMBL ID of Ligand>
CHEMBL108308

> <KEGG ID of Ligand>
C15713

> <ZINC ID of Ligand>
ZINC85600024

> <Number of Protein Chains in Target (bigger than 1 implies a multichain complex)>
1

> <BindingDB Target Chain Sequence>
MEMEKEFEQIDKSGSWAAIYQDIRHEASDFPCRVAKLPKNKNRNRYRDVSPFDHSRIKLHQEDNDYINASLIKMEEAQRSYILTQGPLPNTCGHFWEMVWEQKSRGVVMLNRVMEKGSLKCAQYWPQKEEKEMIFEDTNLKLTLISEDIKSYYTVRQLELENLTTQETREILHFHYTTWPDFGVPESPASFLNFLFKVRE
SGSLSPEHGPVVVHCSAGIGRSGTFCLADTCLLLMDKRKDPSSVDIKKVLLEMRKFRMGLIQTADQLRFSYLAVIEGAKFIMGDSSVQDQWKELSHEDLEPPPEHIPPPPRPPKRILEPHNGKCREFFPNHQWVKEETQEDKDCPIKEEKGSPLNAAPYGIESMSQDTEVRSRVVGGSLRGAQAASPAKGEPSLPEKDED
HALSYWKPFLVNMCVATVLTAGAYLCYRFLFNSNT

> <PDB ID(s) of Target Chain>
1BZJ,1G7G,1GFY,1JF7,1KAK,1KAV,1LQF,1NL9,1NNY,1NO6,1NZ7,1OEM,1OEO,1OES,1OET,1OEU,1OEV,1ONY,1ONZ,1PH0,1PXH,1PYN,1Q1M,1Q6J,1Q6M,1Q6N,1Q6P,1Q6S,1Q6T,1QXK,1SUG,1T48,1T49,1T4J,1WAX,1XBO,2AZR,2B07,2BGD,2BGE,
2CM2,2CM3,2CM7,2CM8,2CMA,2CMB,2CMC,2CNE,2CNF,2CNG,2CNH,2CNI,2F6T,2F6V,2F6W,2F6Y,2F6Z,2F70,2F71,2FJN,2H4G,2H4K,2HB1,2HNP,2HNQ,2QBP,2QBQ,2QBR,2QBS,2VEU,2VEV,2VEW,2VEX,2VEY,2ZMM,2ZN7,3A5J,3CWE,3D9C,3EAX,
3EB1,3EU0,3I7Z,3I80,3SME,4BJO,4I8N,4QBW,4Y14,5K9V,5K9W,5KA0,5KA1,5T19,6B90,6NTP,6W30,7KEY,7KLX,7LFO,7MN9,7MNA,8DU7,8G65,8G67,8G68,8G69,8G6A,8SKL

> <UniProt (SwissProt) Recommended Name of Target Chain>
Tyrosine-protein phosphatase non-receptor type 1

> <UniProt (SwissProt) Entry Name of Target Chain>
PTN1_HUMAN

> <UniProt (SwissProt) Primary ID of Target Chain>
P18031

> <UniProt (SwissProt) Secondary ID(s) of Target Chain>
Q5TGD8 Q9BQV9 Q9NQQ4

$$$$
Molecule
  SciTegic10242319433D

120122  0  0  0  0            999 V2000
   11.2856   -1.8847    1.4674 C   0  0
   10.9423   -3.0376    0.4589 C   0  0
   12.2503   -3.8252    0.2504 C   0  0  2  0  0  0
   13.3437   -2.9200   -0.3605 C   0  0  1  0  0  0
   13.5028   -1.7696    0.4543 O   0  0
   12.2779   -0.9695    0.7573 C   0  0  2  0  0  0
   14.6615   -3.7953   -0.3069 C   0  0
   16.0003   -3.0646   -0.6116 C   0  0
   17.1745   -4.0751   -0.2871 C   0  0  1  0  0  0
   18.5520   -3.4554   -0.3966 C   0  0
   19.5511   -4.1864   -0.4007 O   0  0
   18.7255   -1.9649   -0.3541 C   0  0
   -7.8583    1.6163   -0.1794 C   0  0  1  0  0  0
   -9.2316    2.3223   -0.0091 C   0  0
   -9.4943    3.7641    0.1114 C   0  0
  -10.8475    3.9932    0.2158 O   0  0
  -11.4429    2.7635    0.1700 C   0  0
  -10.4371    1.7231    0.0257 C   0  0
   -8.6373    4.6601    0.0874 O   0  0
  -12.6679    2.5633    0.2179 O   0  0
  -10.7270    0.2516   -0.0804 C   0  0
   -6.5978    2.5147    0.1541 C   0  0
   -5.3219    1.7327   -0.1959 C   0  0
   -4.0017    2.1019    0.3449 O   0  0
   -2.7994    1.2121   -0.0227 C   0  0  1  0  0  0
   -1.3452    2.1422    0.2611 C   0  0  1  0  0  0
    0.1099    1.4412   -0.0784 C   0  0  1  0  0  0
    1.3921    2.3749    0.1415 C   0  0
    2.7109    1.5445   -0.1611 C   0  0
    4.1360    2.2019   -0.2736 C   0  0  2  0  0  0
    2.6116    0.3292   -0.3575 O   0  0
   -2.8882   -0.2303    0.8335 C   0  0
   -4.1880   -1.0606    0.7237 C   0  0
   -1.8468   -1.2712    0.3992 C   0  0
   -5.4289    0.7896   -0.9862 O   0  0
    5.3436    1.1165   -0.2296 C   0  0  2  0  0  0
    6.7846    1.8141   -0.3939 C   0  0
    8.0898    0.8301   -0.3058 C   0  0
    9.4005    1.7530   -0.2405 C   0  0  2  0  0  0
   10.8899    0.9796    0.0356 C   0  0  2  0  0  0
   12.2012    1.9632    0.2750 C   0  0  2  0  0  0
   13.4175    1.0562    0.5643 C   0  0
   12.8360    0.1420    1.6294 C   0  0
   11.5523   -0.3262   -0.3997 O   0  0
   12.1423    2.8534    1.5532 C   0  0
    9.0286    2.7197    0.9104 C   0  0
    4.2877    3.2595    0.8396 C   0  0
   -7.8169    0.4192    0.6067 O   0  0
   -1.3439    3.3520   -0.5738 O   0  0
    5.1700    0.1705   -1.2824 O   0  0
   12.0353   -5.0568   -0.6556 C   0  0
   17.0384   -4.5636    1.1724 C   0  0
    0.3388    0.3376    0.7675 O   0  0
   -2.3715    4.3072   -0.2616 C   0  0
   10.3833   -1.3316    1.7282 H   0  0
   11.7339   -2.2966    2.3716 H   0  0
   10.1718   -3.6869    0.8746 H   0  0
   10.5961   -2.6218   -0.4873 H   0  0
   12.5985   -4.1730    1.2230 H   0  0
   13.0972   -2.6440   -1.3858 H   0  0
   14.7366   -4.2172    0.6953 H   0  0
   14.5524   -4.6005   -1.0334 H   0  0
   16.0366   -2.7761   -1.6621 H   0  0
   16.0902   -2.1758    0.0130 H   0  0
   17.1100   -4.9300   -0.9602 H   0  0
   19.7833   -1.7190   -0.4474 H   0  0
   18.3460   -1.5812    0.5929 H   0  0
   18.1735   -1.5107   -1.1770 H   0  0
   -7.7755    1.3192   -1.2248 H   0  0
   -9.7907   -0.2975   -0.1798 H   0  0
  -11.3511    0.0658   -0.9546 H   0  0
  -11.2497   -0.0819    0.8161 H   0  0
   -6.6370    3.4321   -0.4331 H   0  0
   -6.5956    2.7619    1.2157 H   0  0
   -2.8564    0.9824   -1.0867 H   0  0
   -1.3380    2.4508    1.3065 H   0  0
    0.1005    1.0954   -1.1121 H   0  0
    1.3387    3.2297   -0.5326 H   0  0
    1.4129    2.7259    1.1733 H   0  0
    4.1887    2.7186   -1.2319 H   0  0
   -2.7204   -0.0065    1.8870 H   0  0
   -4.0962   -1.9619    1.3297 H   0  0
   -4.3554   -1.3386   -0.3169 H   0  0
   -5.0299   -0.4675    1.0808 H   0  0
   -1.9654   -2.1755    0.9960 H   0  0
   -0.8451   -0.8675    0.5475 H   0  0
   -1.9892   -1.5106   -0.6546 H   0  0
    5.3121    0.5918    0.7253 H   0  0
    6.8054    2.3044   -1.3672 H   0  0
    6.8812    2.5624    0.3927 H   0  0
    8.0275    0.2119    0.5897 H   0  0
    8.1312    0.1904   -1.1874 H   0  0
    9.4709    2.3242   -1.1662 H   0  0
   10.7202    0.7123    1.0786 H   0  0
   12.3842    2.5758   -0.6078 H   0  0
   13.7227    0.4986   -0.3212 H   0  0
   14.2642    1.6281    0.9439 H   0  0
   13.6051   -0.2260    2.3085 H   0  0
   12.0519    0.6376    2.2019 H   0  0
   13.0466    3.4585    1.6172 H   0  0
   12.0675    2.2182    2.4358 H   0  0
   11.2714    3.5070    1.5016 H   0  0
    9.8453    3.4229    1.0731 H   0  0
    8.8540    2.1491    1.8226 H   0  0
    8.1245    3.2684    0.6468 H   0  0
    5.2725    3.7216    0.7707 H   0  0
    4.1786    2.7814    1.8131 H   0  0
    3.5194    4.0238    0.7225 H   0  0
   -7.9562    0.6598    1.6193 H   0  0
    4.2511   -0.3231   -1.1621 H   0  0
   12.9797   -5.5867   -0.7794 H   0  0
   11.6710   -4.7323   -1.6304 H   0  0
   11.3033   -5.7221   -0.1977 H   0  0
   17.8454   -5.2599    1.3999 H   0  0
   16.0793   -5.0656    1.3001 H   0  0
   17.0941   -3.7103    1.8484 H   0  0
    1.2290   -0.1420    0.4848 H   0  0
   -2.2877    5.1635   -0.9308 H   0  0
   -2.2573    4.6404    0.7699 H   0  0
   -3.3498    3.8432   -0.3870 H   0  0
 13 14  1  0
 27 28  1  0
 14 15  1  0
 28 29  1  0
  4  7  1  0
 30 29  1  0
  1  2  1  0
 29 31  2  0
  7  8  1  0
 25 32  1  0
  6  1  1  0
 32 33  1  0
 15 16  1  0
 32 34  1  0
 16 17  1  0
 23 35  2  0
 17 18  1  0
 30 36  1  0
 18 14  2  0
 36 37  1  0
  9  8  1  0
 37 38  1  0
 15 19  2  0
 39 38  1  0
  3  2  1  0
 40 39  1  0
 17 20  2  0
 40 41  1  0
  9 10  1  0
 41 42  1  0
 40 44  1  0
 18 21  1  0
 42 43  1  0
  3  4  1  0
  6 43  1  0
  6 44  1  0
 13 22  1  0
 10 11  2  0
 41 45  1  0
 22 23  1  0
 39 46  1  0
  4  5  1  0
 30 47  1  0
 23 24  1  0
 13 48  1  0
 10 12  1  0
 26 49  1  0
 25 24  1  0
 36 50  1  0
  6  5  1  0
  3 51  1  0
 26 25  1  0
  9 52  1  0
 27 53  1  0
 26 27  1  0
 49 54  1  0
  1 55  1  0
  1 56  1  0
  2 57  1  0
  2 58  1  0
  3 59  1  0
  4 60  1  0
  7 61  1  0
  7 62  1  0
  8 63  1  0
  8 64  1  0
  9 65  1  0
 12 66  1  0
 12 67  1  0
 12 68  1  0
 13 69  1  0
 21 70  1  0
 21 71  1  0
 21 72  1  0
 22 73  1  0
 22 74  1  0
 25 75  1  0
 26 76  1  0
 27 77  1  0
 28 78  1  0
 28 79  1  0
 30 80  1  0
 32 81  1  0
 33 82  1  0
 33 83  1  0
 33 84  1  0
 34 85  1  0
 34 86  1  0
 34 87  1  0
 36 88  1  0
 37 89  1  0
 37 90  1  0
 38 91  1  0
 38 92  1  0
 39 93  1  0
 40 94  1  0
 41 95  1  0
 42 96  1  0
 42 97  1  0
 43 98  1  0
 43 99  1  0
 45100  1  0
 45101  1  0
 45102  1  0
 46103  1  0
 46104  1  0
 46105  1  0
 47106  1  0
 47107  1  0
 47108  1  0
 48109  1  0
 50110  1  0
 51111  1  0
 51112  1  0
 51113  1  0
 52114  1  0
 52115  1  0
 52116  1  0
 53117  1  0
 54118  1  0
 54119  1  0
 54120  1  0
M  END
> <Name>
Molecule

> <Clean Energy>
232.197

> <From>
www.bindingDB.org

> <BindingDB Reactant_set_id>
50782663

> <Ligand InChI>
InChI=1S/C41H66O13/c1-21(2)36(51-34(47)20-31(45)35-27(8)39(48)52-40(35)49)38(50-10)32(46)19-30(44)26(7)29(43)13-11-24(5)37-25(6)16-18-41(54-37)17-15-23(4)33(53-41)14-12-22(3)28(9)42/h21-26,29,31-33,36
-38,43,45-46H,11-20H2,1-10H3/t22-,23+,24+,25-,26-,29-,31+,32+,33-,36+,37-,38+,41+/m0/s1

> <Ligand InChI Key>
RFCWHQNNCOJYTR-IRCAEPKSSA-N

> <BindingDB MonomerID>
50366883

> <BindingDB Ligand Name>
TAUTOMYCIN

> <Target Name>
Tyrosine-protein phosphatase non-receptor type 1

> <Target Source Organism According to Curator or DataSource>
Homo sapiens

> <IC50 (nM)>
0.67

> <Curation/DataSource>
ChEMBL

> <Article DOI>
10.1021/jm960873x

> <BindingDB Entry DOI>
10.7270/Q25Q4WS0

> <PMID>
9379439

> <Authors>
Gupta, V; Ogawa, AK; Du, X; Houk, KN; Armstrong, RW

> <Institution>
University of California

> <Link to Ligand in BindingDB>
http://www.bindingdb.org/bind/chemsearch/marvin/MolStructure.jsp?monomerid=50366883

> <Link to Ligand-Target Pair in BindingDB>
http://www.bindingdb.org/jsp/dbsearch/PrimarySearch_ki.jsp?energyterm=kJ/mole&tag=pol&polymerid=2622&target=Tyrosine-protein+phosphatase+non-receptor+type+1&column=ki&startPg=0&Increment=50&submit=Sea
rch
http://www.bindingdb.org/jsp/dbsearch/PrimarySearch_ki.jsp?energyterm=kJ/mole&tag=r21&monomerid=50366883&enzyme=Tyrosine-protein+phosphatase+non-receptor+type+1&column=ki&startPg=0&Increment=50&submit
=Search

> <PubChem CID of Ligand>
440646

> <PubChem SID of Ligand>
160845985

> <KEGG ID of Ligand>
C05372

> <ZINC ID of Ligand>
ZINC95615663

> <Number of Protein Chains in Target (bigger than 1 implies a multichain complex)>
1

> <BindingDB Target Chain Sequence>
MEMEKEFEQIDKSGSWAAIYQDIRHEASDFPCRVAKLPKNKNRNRYRDVSPFDHSRIKLHQEDNDYINASLIKMEEAQRSYILTQGPLPNTCGHFWEMVWEQKSRGVVMLNRVMEKGSLKCAQYWPQKEEKEMIFEDTNLKLTLISEDIKSYYTVRQLELENLTTQETREILHFHYTTWPDFGVPESPASFLNFLFKVRE
SGSLSPEHGPVVVHCSAGIGRSGTFCLADTCLLLMDKRKDPSSVDIKKVLLEMRKFRMGLIQTADQLRFSYLAVIEGAKFIMGDSSVQDQWKELSHEDLEPPPEHIPPPPRPPKRILEPHNGKCREFFPNHQWVKEETQEDKDCPIKEEKGSPLNAAPYGIESMSQDTEVRSRVVGGSLRGAQAASPAKGEPSLPEKDED
HALSYWKPFLVNMCVATVLTAGAYLCYRFLFNSNT

> <PDB ID(s) of Target Chain>
1BZJ,1G7G,1GFY,1JF7,1KAK,1KAV,1LQF,1NL9,1NNY,1NO6,1NZ7,1OEM,1OEO,1OES,1OET,1OEU,1OEV,1ONY,1ONZ,1PH0,1PXH,1PYN,1Q1M,1Q6J,1Q6M,1Q6N,1Q6P,1Q6S,1Q6T,1QXK,1SUG,1T48,1T49,1T4J,1WAX,1XBO,2AZR,2B07,2BGD,2BGE,
2CM2,2CM3,2CM7,2CM8,2CMA,2CMB,2CMC,2CNE,2CNF,2CNG,2CNH,2CNI,2F6T,2F6V,2F6W,2F6Y,2F6Z,2F70,2F71,2FJN,2H4G,2H4K,2HB1,2HNP,2HNQ,2QBP,2QBQ,2QBR,2QBS,2VEU,2VEV,2VEW,2VEX,2VEY,2ZMM,2ZN7,3A5J,3CWE,3D9C,3EAX,
3EB1,3EU0,3I7Z,3I80,3SME,4BJO,4I8N,4QBW,4Y14,5K9V,5K9W,5KA0,5KA1,5T19,6B90,6NTP,6W30,7KEY,7KLX,7LFO,7MN9,7MNA,8DU7,8G65,8G67,8G68,8G69,8G6A,8SKL

> <UniProt (SwissProt) Recommended Name of Target Chain>
Tyrosine-protein phosphatase non-receptor type 1

> <UniProt (SwissProt) Entry Name of Target Chain>
PTN1_HUMAN

> <UniProt (SwissProt) Primary ID of Target Chain>
P18031

> <UniProt (SwissProt) Secondary ID(s) of Target Chain>
Q5TGD8 Q9BQV9 Q9NQQ4

$$$$
Molecule
  SciTegic10242319433D

112113  0  0  0  0            999 V2000
   10.4923   -3.9663   -0.1034 N   0  0
    6.6035   -6.2000    0.2426 N   0  0
   11.5564   -3.1003   -0.1409 C   0  0
    7.7656   -5.6145   -0.2148 C   0  0
   10.0421   -0.9199   -0.0628 N   0  0
   11.4221   -1.5757    0.0104 C   0  0
    4.4048   -0.0971   -0.0466 C   0  0
    4.7944   -4.4463   -0.3299 C   0  0
   10.4800   -5.4602   -0.3077 C   0  0  2  0  0  0
    9.1255   -6.1400    0.3259 C   0  0  2  0  0  0
    3.5248   -3.9039   -0.1455 N   0  0
    5.6039    0.4609    0.1768 N   0  0
    4.3463   -1.5419    0.3023 C   0  0  2  0  0  0
    5.1490   -5.9521   -0.1997 C   0  0  2  0  0  0
    3.2530   -2.4320   -0.4318 C   0  0  2  0  0  0
    9.6496    0.4782    0.0572 C   0  0
   11.7697   -6.1801    0.2473 C   0  0
    6.0379    1.7942   -0.1624 C   0  0  1  0  0  0
    1.7819   -1.9204   -0.0940 C   0  0
    5.1716    2.8682    0.4129 C   0  0
   -1.9348   -2.4391   -0.1164 C   0  0
    0.6120   -2.5869   -0.2570 C   0  0
   -0.7106   -1.8371    0.0331 C   0  0
    7.7565   -4.7491   -1.0940 O   0  0
   12.7010   -3.5209   -0.3294 O   0  0
    3.4743    0.5040   -0.5957 O   0  0
    5.7110   -3.7239   -0.7121 O   0  0
   -3.3946   -1.7584    0.0751 C   0  0  1  0  0  0
   12.6296   -0.9741    0.1431 C   0  0
   -4.5736   -2.8077   -0.0568 C   0  0  2  0  0  0
    8.2020    0.7445   -0.3102 C   0  0
   10.4093    1.4166    0.3037 O   0  0
   12.7519   -5.5445    0.6360 O   0  0
    4.0982    2.5836    0.9549 O   0  0
    7.5103    1.9529    0.3136 C   0  0
   -5.9554   -1.9593    0.0896 C   0  0
    4.1655   -6.7735    0.7021 C   0  0
   11.8878   -7.5670    0.2325 O   0  0
    5.5842    4.1896    0.3483 O   0  0
    8.9072   -1.7635   -0.3243 C   0  0
    9.0552   -7.6584    0.0606 C   0  0
   -7.3775   -2.6039   -0.0582 C   0  0
    4.2158   -1.6726    1.8284 C   0  0
   -4.2889   -3.7613    1.0351 O   0  0
   -0.5715   -0.3782    0.4239 C   0  0
   -3.5799   -1.1181    1.4853 C   0  0
   12.9851    0.4814    0.2834 C   0  0
    2.7021   -6.6805    0.2104 C   0  0
    4.5829   -8.2582    0.6494 C   0  0
   -7.5868   -3.8858   -0.5685 C   0  0
   -8.4832   -1.8504    0.3185 C   0  0
   -5.1173   -4.9164    1.1441 C   0  0
   -9.7740   -2.3650    0.2090 C   0  0
   -8.8711   -4.4069   -0.6736 C   0  0
   -9.9696   -3.6480   -0.2824 C   0  0
    9.5409   -3.5202    0.0985 H   0  0
    6.7303   -6.9302    1.0143 H   0  0
   10.4532   -5.6359   -1.3831 H   0  0
    9.1427   -5.9857    1.4048 H   0  0
    2.7293   -4.5295    0.2021 H   0  0
    6.3265   -0.1582    0.6662 H   0  0
    5.3161   -1.9633    0.0379 H   0  0
    5.0620   -6.3712   -1.2022 H   0  0
    3.3977   -2.2881   -1.5025 H   0  0
    6.0206    1.8903   -1.2480 H   0  0
    1.7070   -0.9138    0.3174 H   0  0
   -1.9251   -3.4928   -0.3951 H   0  0
    0.6035   -3.6264   -0.5846 H   0  0
   -3.5248   -0.9855   -0.6824 H   0  0
   13.4809   -1.6548    0.1490 H   0  0
   -4.5330   -3.3096   -1.0236 H   0  0
    8.1615    0.8719   -1.3920 H   0  0
    7.6290   -0.1381   -0.0260 H   0  0
    7.9425    2.8842   -0.0523 H   0  0
    7.5760    1.9239    1.4013 H   0  0
   -5.9300   -1.5150    1.0846 H   0  0
   -5.9042   -1.1716   -0.6621 H   0  0
    4.2277   -6.4144    1.7294 H   0  0
   11.1129   -7.9908    0.8004 H   0  0
    6.4973    4.2969    0.8555 H   0  0
    8.0012   -1.1580   -0.3469 H   0  0
    8.8227   -2.5137    0.4620 H   0  0
    9.0363   -2.2592   -1.2864 H   0  0
    9.9739   -8.1313    0.4078 H   0  0
    8.9373   -7.8360   -1.0084 H   0  0
    8.2048   -8.0822    0.5949 H   0  0
    4.9730   -1.0558    2.3125 H   0  0
    4.3569   -2.7140    2.1178 H   0  0
    3.2249   -1.3408    2.1386 H   0  0
    0.4849   -0.1167    0.4836 H   0  0
   -1.0410   -0.2150    1.3940 H   0  0
   -1.0583    0.2470   -0.3247 H   0  0
   -4.5743   -0.6778    1.5572 H   0  0
   -2.8282   -0.3429    1.6345 H   0  0
   -3.4667   -1.8856    2.2510 H   0  0
   14.0668    0.5853    0.3678 H   0  0
   12.5109    0.8872    1.1770 H   0  0
   12.6354    1.0275   -0.5928 H   0  0
    2.0595   -7.2660    0.8678 H   0  0
    2.6340   -7.0705   -0.8051 H   0  0
    2.3801   -5.6392    0.2216 H   0  0
    3.9096   -8.8478    1.2716 H   0  0
    5.6031   -8.3627    1.0187 H   0  0
    4.5312   -8.6144   -0.3795 H   0  0
   -6.7340   -4.4848   -0.8881 H   0  0
   -8.3387   -0.8416    0.7054 H   0  0
   -4.7890   -5.5211    1.9894 H   0  0
   -5.0453   -5.5034    0.2284 H   0  0
   -6.1517   -4.6091    1.2978 H   0  0
  -10.6295   -1.7598    0.5092 H   0  0
   -9.0182   -5.4139   -1.0639 H   0  0
  -10.9765   -4.0581   -0.3613 H   0  0
  2  4  1  0
  3  1  1  0
 10  4  1  0
  5  6  1  0
  6  3  1  0
  7 12  1  0
 14  8  1  0
  9  1  1  0
  9 10  1  0
 11  8  1  0
 18 12  1  0
 13 15  1  0
 14  2  1  0
 15 11  1  0
 16  5  1  0
  9 17  1  0
 18 35  1  0
 15 19  1  0
 18 20  1  0
 21 23  2  0
 22 19  2  0
 23 22  1  0
 24  4  2  0
 25  3  2  0
 26  7  2  0
 27  8  2  0
 28 21  1  0
 29  6  2  0
 28 30  1  0
 31 16  1  0
 32 16  2  0
 33 17  2  0
 34 20  2  0
 35 31  1  0
 30 36  1  0
 14 37  1  0
 38 17  1  0
 39 20  1  0
 40  5  1  0
 10 41  1  0
 42 36  1  0
 13 43  1  0
 30 44  1  0
 45 23  1  0
 28 46  1  0
 47 29  1  0
 48 37  1  0
 49 37  1  0
 50 42  4  0
 51 42  4  0
 52 44  1  0
 53 51  4  0
 54 50  4  0
 55 53  4  0
 13  7  1  0
 54 55  4  0
  1 56  1  0
  2 57  1  0
  9 58  1  0
 10 59  1  0
 11 60  1  0
 12 61  1  0
 13 62  1  0
 14 63  1  0
 15 64  1  0
 18 65  1  0
 19 66  1  0
 21 67  1  0
 22 68  1  0
 28 69  1  0
 29 70  1  0
 30 71  1  0
 31 72  1  0
 31 73  1  0
 35 74  1  0
 35 75  1  0
 36 76  1  0
 36 77  1  0
 37 78  1  0
 38 79  1  0
 39 80  1  0
 40 81  1  0
 40 82  1  0
 40 83  1  0
 41 84  1  0
 41 85  1  0
 41 86  1  0
 43 87  1  0
 43 88  1  0
 43 89  1  0
 45 90  1  0
 45 91  1  0
 45 92  1  0
 46 93  1  0
 46 94  1  0
 46 95  1  0
 47 96  1  0
 47 97  1  0
 47 98  1  0
 48 99  1  0
 48100  1  0
 48101  1  0
 49102  1  0
 49103  1  0
 49104  1  0
 50105  1  0
 51106  1  0
 52107  1  0
 52108  1  0
 52109  1  0
 53110  1  0
 54111  1  0
 55112  1  0
M  END
> <Name>
Molecule

> <Clean Energy>
156.938

> <From>
www.bindingDB.org

> <BindingDB Reactant_set_id>
50560127

> <Ligand InChI>
InChI=1S/C40H57N5O10/c1-10-30-37(49)44-34(40(53)54)26(7)36(48)43-33(22(2)3)38(50)41-28(25(6)35(47)42-29(39(51)52)18-19-32(46)45(30)8)17-16-23(4)20-24(5)31(55-9)21-27-14-12-11-13-15-27/h10-17,20,22,24-
26,28-29,31,33-34H,18-19,21H2,1-9H3,(H,41,50)(H,42,47)(H,43,48)(H,44,49)(H,51,52)(H,53,54)/b17-16+,23-20+,30-10-/t24-,25-,26-,28-,29+,31-,33-,34+/m0/s1

> <Ligand InChI Key>
GIRIHYQVGVTBIP-NJYUBDSESA-N

> <BindingDB MonomerID>
50212842

> <BindingDB Ligand Name>
Motuporin

> <Target Name>
Tyrosine-protein phosphatase non-receptor type 1

> <Target Source Organism According to Curator or DataSource>
Homo sapiens

> <IC50 (nM)>
<1

> <Curation/DataSource>
ChEMBL

> <Article DOI>
10.1016/S0960-894X(00)80281-4

> <BindingDB Entry DOI>
10.7270/Q2125T5P

> <Authors>
Quinn, RJ; Taylor, C; Suganuma, M; Fujiki, H

> <Institution>
TBA

> <Link to Ligand in BindingDB>
http://www.bindingdb.org/bind/chemsearch/marvin/MolStructure.jsp?monomerid=50212842

> <Link to Ligand-Target Pair in BindingDB>
http://www.bindingdb.org/jsp/dbsearch/PrimarySearch_ki.jsp?energyterm=kJ/mole&tag=pol&polymerid=2622&target=Tyrosine-protein+phosphatase+non-receptor+type+1&column=ki&startPg=0&Increment=50&submit=Sea
rch
http://www.bindingdb.org/jsp/dbsearch/PrimarySearch_ki.jsp?energyterm=kJ/mole&tag=r21&monomerid=50212842&enzyme=Tyrosine-protein+phosphatase+non-receptor+type+1&column=ki&startPg=0&Increment=50&submit
=Search

> <PubChem CID of Ligand>
4369034

> <PubChem SID of Ligand>
376070615

> <Number of Protein Chains in Target (bigger than 1 implies a multichain complex)>
1

> <BindingDB Target Chain Sequence>
MEMEKEFEQIDKSGSWAAIYQDIRHEASDFPCRVAKLPKNKNRNRYRDVSPFDHSRIKLHQEDNDYINASLIKMEEAQRSYILTQGPLPNTCGHFWEMVWEQKSRGVVMLNRVMEKGSLKCAQYWPQKEEKEMIFEDTNLKLTLISEDIKSYYTVRQLELENLTTQETREILHFHYTTWPDFGVPESPASFLNFLFKVRE
SGSLSPEHGPVVVHCSAGIGRSGTFCLADTCLLLMDKRKDPSSVDIKKVLLEMRKFRMGLIQTADQLRFSYLAVIEGAKFIMGDSSVQDQWKELSHEDLEPPPEHIPPPPRPPKRILEPHNGKCREFFPNHQWVKEETQEDKDCPIKEEKGSPLNAAPYGIESMSQDTEVRSRVVGGSLRGAQAASPAKGEPSLPEKDED
HALSYWKPFLVNMCVATVLTAGAYLCYRFLFNSNT

> <PDB ID(s) of Target Chain>
1BZJ,1G7G,1GFY,1JF7,1KAK,1KAV,1LQF,1NL9,1NNY,1NO6,1NZ7,1OEM,1OEO,1OES,1OET,1OEU,1OEV,1ONY,1ONZ,1PH0,1PXH,1PYN,1Q1M,1Q6J,1Q6M,1Q6N,1Q6P,1Q6S,1Q6T,1QXK,1SUG,1T48,1T49,1T4J,1WAX,1XBO,2AZR,2B07,2BGD,2BGE,
2CM2,2CM3,2CM7,2CM8,2CMA,2CMB,2CMC,2CNE,2CNF,2CNG,2CNH,2CNI,2F6T,2F6V,2F6W,2F6Y,2F6Z,2F70,2F71,2FJN,2H4G,2H4K,2HB1,2HNP,2HNQ,2QBP,2QBQ,2QBR,2QBS,2VEU,2VEV,2VEW,2VEX,2VEY,2ZMM,2ZN7,3A5J,3CWE,3D9C,3EAX,
3EB1,3EU0,3I7Z,3I80,3SME,4BJO,4I8N,4QBW,4Y14,5K9V,5K9W,5KA0,5KA1,5T19,6B90,6NTP,6W30,7KEY,7KLX,7LFO,7MN9,7MNA,8DU7,8G65,8G67,8G68,8G69,8G6A,8SKL

> <UniProt (SwissProt) Recommended Name of Target Chain>
Tyrosine-protein phosphatase non-receptor type 1

> <UniProt (SwissProt) Entry Name of Target Chain>
PTN1_HUMAN

> <UniProt (SwissProt) Primary ID of Target Chain>
P18031

> <UniProt (SwissProt) Secondary ID(s) of Target Chain>
Q5TGD8 Q9BQV9 Q9NQQ4

$$$$
Molecule
  SciTegic10242319433D

 51 55  0  0  0  0            999 V2000
    0.8472   -3.8177    1.4800 O   0  0
    0.8431   -3.1051    0.1412 S   0  0
    0.1844   -3.9902   -0.9003 O   0  0
   11.6999   -1.0571    1.3252 O   0  0
   12.3296   -1.6293    0.0693 S   0  0
   11.8372   -0.9298   -1.1836 O   0  0
    5.9619   -4.1240    0.0847 C   0  0
    5.9584   -5.4491   -0.0414 C   0  0
    7.2258   -6.1701   -0.1566 C   0  0
    7.2471   -3.3967    0.0975 C   0  0
    8.3944   -4.0678   -0.0106 C   0  0
    8.3794   -5.5025   -0.1347 C   0  0
    9.6262   -6.2121   -0.2193 C   0  0
   10.7917   -5.5655   -0.1864 C   0  0
   10.8462   -4.0358   -0.0688 C   0  0
    9.6816   -3.3580    0.0066 C   0  0
    4.6582   -3.3782    0.2564 C   0  0  1  0  0  0
    4.6219   -1.8913    0.0716 C   0  0
    3.1565   -1.7439    0.5205 C   0  0
    2.4827   -2.7489   -0.3396 N   0  0
    3.3854   -3.9510   -0.3993 C   0  0
   12.1485   -3.3221   -0.0348 N   0  0
   13.4513   -4.0000   -0.0320 C   0  0
   14.4947   -2.8872    0.1077 C   0  0
   13.9950   -1.5906    0.1670 N   0  0
   -0.0793   -1.5516    0.3013 C   0  0
   -0.6581   -1.0830   -1.0184 C   0  0
   -1.5691   -1.7441    0.0964 C   0  0
   15.7061   -3.1275    0.1656 O   0  0
    9.6475   -2.0295    0.1064 F   0  0
   11.9394   -6.3483   -0.2709 O   0  0
    5.0149   -5.9947   -0.0588 H   0  0
    7.2270   -7.2551   -0.2607 H   0  0
    7.2579   -2.3112    0.1952 H   0  0
    9.6189   -7.2981   -0.3119 H   0  0
    4.4534   -3.4935    1.3208 H   0  0
    5.3214   -1.3641    0.7203 H   0  0
    4.7837   -1.5863   -0.9622 H   0  0
    3.0379   -1.9809    1.5778 H   0  0
    2.7803   -0.7390    0.3285 H   0  0
    2.9804   -4.7871    0.1709 H   0  0
    3.5688   -4.2660   -1.4265 H   0  0
   13.5183   -4.6917    0.8077 H   0  0
   13.5987   -4.5445   -0.9647 H   0  0
   14.5874   -0.7045    0.2608 H   0  0
    0.2621   -0.8076    1.0210 H   0  0
   -0.7407   -0.0177   -1.2341 H   0  0
   -0.4363   -1.6243   -1.9381 H   0  0
   -2.2828   -1.1370    0.6533 H   0  0
   -1.9784   -2.7435   -0.0507 H   0  0
   11.9636   -7.0228    0.5335 H   0  0
  2  1  2  0
  3  2  2  0
  5  4  2  0
  6  5  2  0
  7  8  2  0
  8  9  1  0
  9 12  2  0
 11 10  2  0
 10  7  1  0
 11 12  1  0
 12 13  1  0
 13 14  2  0
 14 15  1  0
 15 16  2  0
 16 11  1  0
 17 18  1  0
 18 19  1  0
 19 20  1  0
 20 21  1  0
 21 17  1  0
  7 17  1  0
 22 23  1  0
 23 24  1  0
 24 25  1  0
 25  5  1  0
  5 22  1  0
 15 22  1  0
 20  2  1  0
  2 26  1  0
 27 26  1  0
 28 27  1  0
 26 28  1  0
 24 29  2  0
 16 30  1  0
 14 31  1  0
  8 32  1  0
  9 33  1  0
 10 34  1  0
 13 35  1  0
 17 36  1  0
 18 37  1  0
 18 38  1  0
 19 39  1  0
 19 40  1  0
 21 41  1  0
 21 42  1  0
 23 43  1  0
 23 44  1  0
 25 45  1  0
 26 46  1  0
 27 47  1  0
 27 48  1  0
 28 49  1  0
 28 50  1  0
 31 51  1  0
M  END
> <Name>
Molecule

> <Clean Energy>
72.4575

> <From>
www.bindingDB.org

> <BindingDB Reactant_set_id>
51435736

> <Ligand InChI>
InChI=1S/C19H20FN3O6S2/c20-18-15-7-11(13-5-6-22(9-13)30(26,27)14-3-4-14)1-2-12(15)8-16(24)19(18)23-10-17(25)21-31(23,28)29/h1-2,7-8,13-14,24H,3-6,9-10H2,(H,21,25)

> <Ligand InChI Key>
AYROLBLQVASEBX-UHFFFAOYSA-N

> <BindingDB MonomerID>
50579994

> <BindingDB Ligand Name>
CHEMBL5070507

> <Target Name>
Tyrosine-protein phosphatase non-receptor type 1

> <Target Source Organism According to Curator or DataSource>
Homo sapiens

> <IC50 (nM)>
1

> <Curation/DataSource>
ChEMBL

> <Article DOI>
10.1021/acsmedchemlett.1c00678

> <BindingDB Entry DOI>
10.7270/Q2SB49MH

> <PMID>
35059117

> <Authors>
Abdel-Magid, AF

> <Institution>
Therachem Research Medilab, LLC

> <Link to Ligand in BindingDB>
http://www.bindingdb.org/bind/chemsearch/marvin/MolStructure.jsp?monomerid=50579994

> <Link to Ligand-Target Pair in BindingDB>
http://www.bindingdb.org/jsp/dbsearch/PrimarySearch_ki.jsp?energyterm=kJ/mole&tag=pol&polymerid=2622&target=Tyrosine-protein+phosphatase+non-receptor+type+1&column=ki&startPg=0&Increment=50&submit=Sea
rch
http://www.bindingdb.org/jsp/dbsearch/PrimarySearch_ki.jsp?energyterm=kJ/mole&tag=r21&monomerid=50579994&enzyme=Tyrosine-protein+phosphatase+non-receptor+type+1&column=ki&startPg=0&Increment=50&submit
=Search

> <PubChem CID of Ligand>
147036962

> <PubChem SID of Ligand>
476024999

> <Number of Protein Chains in Target (bigger than 1 implies a multichain complex)>
1

> <BindingDB Target Chain Sequence>
MEMEKEFEQIDKSGSWAAIYQDIRHEASDFPCRVAKLPKNKNRNRYRDVSPFDHSRIKLHQEDNDYINASLIKMEEAQRSYILTQGPLPNTCGHFWEMVWEQKSRGVVMLNRVMEKGSLKCAQYWPQKEEKEMIFEDTNLKLTLISEDIKSYYTVRQLELENLTTQETREILHFHYTTWPDFGVPESPASFLNFLFKVRE
SGSLSPEHGPVVVHCSAGIGRSGTFCLADTCLLLMDKRKDPSSVDIKKVLLEMRKFRMGLIQTADQLRFSYLAVIEGAKFIMGDSSVQDQWKELSHEDLEPPPEHIPPPPRPPKRILEPHNGKCREFFPNHQWVKEETQEDKDCPIKEEKGSPLNAAPYGIESMSQDTEVRSRVVGGSLRGAQAASPAKGEPSLPEKDED
HALSYWKPFLVNMCVATVLTAGAYLCYRFLFNSNT

> <PDB ID(s) of Target Chain>
1BZJ,1G7G,1GFY,1JF7,1KAK,1KAV,1LQF,1NL9,1NNY,1NO6,1NZ7,1OEM,1OEO,1OES,1OET,1OEU,1OEV,1ONY,1ONZ,1PH0,1PXH,1PYN,1Q1M,1Q6J,1Q6M,1Q6N,1Q6P,1Q6S,1Q6T,1QXK,1SUG,1T48,1T49,1T4J,1WAX,1XBO,2AZR,2B07,2BGD,2BGE,
2CM2,2CM3,2CM7,2CM8,2CMA,2CMB,2CMC,2CNE,2CNF,2CNG,2CNH,2CNI,2F6T,2F6V,2F6W,2F6Y,2F6Z,2F70,2F71,2FJN,2H4G,2H4K,2HB1,2HNP,2HNQ,2QBP,2QBQ,2QBR,2QBS,2VEU,2VEV,2VEW,2VEX,2VEY,2ZMM,2ZN7,3A5J,3CWE,3D9C,3EAX,
3EB1,3EU0,3I7Z,3I80,3SME,4BJO,4I8N,4QBW,4Y14,5K9V,5K9W,5KA0,5KA1,5T19,6B90,6NTP,6W30,7KEY,7KLX,7LFO,7MN9,7MNA,8DU7,8G65,8G67,8G68,8G69,8G6A,8SKL

> <UniProt (SwissProt) Recommended Name of Target Chain>
Tyrosine-protein phosphatase non-receptor type 1

> <UniProt (SwissProt) Entry Name of Target Chain>
PTN1_HUMAN

> <UniProt (SwissProt) Primary ID of Target Chain>
P18031

> <UniProt (SwissProt) Secondary ID(s) of Target Chain>
Q5TGD8 Q9BQV9 Q9NQQ4

$$$$
Molecule
  SciTegic10242319433D

 46 48  0  0  0  0            999 V2000
   15.8999   -4.5397    1.3783 C   0  0
   15.7201   -3.9421    0.0145 C   0  0
   15.3313   -5.1527   -0.8656 C   0  0
   27.6829   -1.0414    1.3042 O   0  0
   28.1743   -1.2147   -0.0824 S   0  0
   27.5859    0.1025   -0.5403 O   0  0
   21.3490   -3.8894   -0.0141 C   0  0
   21.4367   -5.2229   -0.0055 C   0  0
   22.8095   -5.9068    0.0102 C   0  0
   22.7385   -3.1224   -0.0094 C   0  0
   23.9470   -3.7775    0.0016 C   0  0
   23.9710   -5.2165    0.0107 C   0  0
   25.3206   -5.9127    0.0198 C   0  0
   26.4935   -5.2403   -0.0124 C   0  0
   26.5222   -3.6996   -0.0694 C   0  0
   25.3239   -3.0357   -0.0423 C   0  0
   27.8829   -2.9387   -0.1788 N   0  0
   29.2853   -3.5994   -0.0034 C   0  0
   30.3347   -2.4149   -0.0646 C   0  0
   29.7939   -1.1775   -0.2489 N   0  0
   31.5709   -2.5621   -0.0043 O   0  0
   25.3096   -1.7083   -0.0820 F   0  0
   27.6959   -5.9945   -0.0022 O   0  0
   19.9515   -3.1500   -0.0675 O   0  0
   18.6083   -4.0047   -0.0908 C   0  0
   17.1681   -3.1401   -0.2967 C   0  0
   14.4895   -3.0256   -0.0212 C   0  0
   13.5647   -2.3303   -0.0391 N   0  0
   16.1794   -3.7578    2.0842 H   0  0
   16.6850   -5.2951    1.3439 H   0  0
   14.9660   -5.0013    1.6992 H   0  0
   15.1758   -4.8212   -1.8922 H   0  0
   14.4124   -5.5989   -0.4853 H   0  0
   16.1314   -5.8926   -0.8406 H   0  0
   20.5292   -5.8267   -0.0097 H   0  0
   22.8497   -6.9960    0.0214 H   0  0
   22.7343   -2.0324   -0.0152 H   0  0
   25.3450   -7.0019    0.0538 H   0  0
   29.3459   -4.1100    0.9577 H   0  0
   29.4713   -4.3123   -0.8066 H   0  0
   30.3593   -0.2973   -0.4735 H   0  0
   27.7387   -6.5740    0.8724 H   0  0
   18.6851   -4.7202   -0.9095 H   0  0
   18.5403   -4.5407    0.8558 H   0  0
   17.2100   -2.2759    0.3662 H   0  0
   17.1367   -2.8028   -1.3328 H   0  0
  2  1  1  0
  3  2  1  0
  5  4  2  0
  6  5  2  0
  7  8  2  0
  8  9  1  0
  9 12  2  0
 11 10  2  0
 10  7  1  0
 11 12  1  0
 12 13  1  0
 13 14  2  0
 14 15  1  0
 15 16  2  0
 16 11  1  0
 17 18  1  0
 18 19  1  0
 19 20  1  0
 20  5  1  0
  5 17  1  0
 15 17  1  0
 19 21  2  0
 16 22  1  0
 14 23  1  0
  7 24  1  0
 24 25  1  0
 25 26  1  0
 26  2  1  0
  2 27  1  0
 27 28  3  0
  1 29  1  0
  1 30  1  0
  1 31  1  0
  3 32  1  0
  3 33  1  0
  3 34  1  0
  8 35  1  0
  9 36  1  0
 10 37  1  0
 13 38  1  0
 18 39  1  0
 18 40  1  0
 20 41  1  0
 23 42  1  0
 25 43  1  0
 25 44  1  0
 26 45  1  0
 26 46  1  0
M  END
> <Name>
Molecule

> <Clean Energy>
73.6556

> <From>
www.bindingDB.org

> <BindingDB Reactant_set_id>
51435737

> <Ligand InChI>
InChI=1S/C18H18FN3O5S/c1-18(2,10-20)5-6-27-12-4-3-11-7-14(23)17(16(19)13(11)8-12)22-9-15(24)21-28(22,25)26/h3-4,7-8,23H,5-6,9H2,1-2H3,(H,21,24)

> <Ligand InChI Key>
ZZDVJLRHZAYBHC-UHFFFAOYSA-N

> <BindingDB MonomerID>
50579995

> <BindingDB Ligand Name>
CHEMBL5085502

> <Target Name>
Tyrosine-protein phosphatase non-receptor type 1

> <Target Source Organism According to Curator or DataSource>
Homo sapiens

> <IC50 (nM)>
<1.000000

> <Curation/DataSource>
ChEMBL

> <Article DOI>
10.1021/acsmedchemlett.1c00678

> <BindingDB Entry DOI>
10.7270/Q2SB49MH

> <PMID>
35059117

> <Authors>
Abdel-Magid, AF

> <Institution>
Therachem Research Medilab, LLC

> <Link to Ligand in BindingDB>
http://www.bindingdb.org/bind/chemsearch/marvin/MolStructure.jsp?monomerid=50579995

> <Link to Ligand-Target Pair in BindingDB>
http://www.bindingdb.org/jsp/dbsearch/PrimarySearch_ki.jsp?energyterm=kJ/mole&tag=pol&polymerid=2622&target=Tyrosine-protein+phosphatase+non-receptor+type+1&column=ki&startPg=0&Increment=50&submit=Sea
rch
http://www.bindingdb.org/jsp/dbsearch/PrimarySearch_ki.jsp?energyterm=kJ/mole&tag=r21&monomerid=50579995&enzyme=Tyrosine-protein+phosphatase+non-receptor+type+1&column=ki&startPg=0&Increment=50&submit
=Search

> <PubChem CID of Ligand>
153379927

> <PubChem SID of Ligand>
476025000

> <Number of Protein Chains in Target (bigger than 1 implies a multichain complex)>
1

> <BindingDB Target Chain Sequence>
MEMEKEFEQIDKSGSWAAIYQDIRHEASDFPCRVAKLPKNKNRNRYRDVSPFDHSRIKLHQEDNDYINASLIKMEEAQRSYILTQGPLPNTCGHFWEMVWEQKSRGVVMLNRVMEKGSLKCAQYWPQKEEKEMIFEDTNLKLTLISEDIKSYYTVRQLELENLTTQETREILHFHYTTWPDFGVPESPASFLNFLFKVRE
SGSLSPEHGPVVVHCSAGIGRSGTFCLADTCLLLMDKRKDPSSVDIKKVLLEMRKFRMGLIQTADQLRFSYLAVIEGAKFIMGDSSVQDQWKELSHEDLEPPPEHIPPPPRPPKRILEPHNGKCREFFPNHQWVKEETQEDKDCPIKEEKGSPLNAAPYGIESMSQDTEVRSRVVGGSLRGAQAASPAKGEPSLPEKDED
HALSYWKPFLVNMCVATVLTAGAYLCYRFLFNSNT

> <PDB ID(s) of Target Chain>
1BZJ,1G7G,1GFY,1JF7,1KAK,1KAV,1LQF,1NL9,1NNY,1NO6,1NZ7,1OEM,1OEO,1OES,1OET,1OEU,1OEV,1ONY,1ONZ,1PH0,1PXH,1PYN,1Q1M,1Q6J,1Q6M,1Q6N,1Q6P,1Q6S,1Q6T,1QXK,1SUG,1T48,1T49,1T4J,1WAX,1XBO,2AZR,2B07,2BGD,2BGE,
2CM2,2CM3,2CM7,2CM8,2CMA,2CMB,2CMC,2CNE,2CNF,2CNG,2CNH,2CNI,2F6T,2F6V,2F6W,2F6Y,2F6Z,2F70,2F71,2FJN,2H4G,2H4K,2HB1,2HNP,2HNQ,2QBP,2QBQ,2QBR,2QBS,2VEU,2VEV,2VEW,2VEX,2VEY,2ZMM,2ZN7,3A5J,3CWE,3D9C,3EAX,
3EB1,3EU0,3I7Z,3I80,3SME,4BJO,4I8N,4QBW,4Y14,5K9V,5K9W,5KA0,5KA1,5T19,6B90,6NTP,6W30,7KEY,7KLX,7LFO,7MN9,7MNA,8DU7,8G65,8G67,8G68,8G69,8G6A,8SKL

> <UniProt (SwissProt) Recommended Name of Target Chain>
Tyrosine-protein phosphatase non-receptor type 1

> <UniProt (SwissProt) Entry Name of Target Chain>
PTN1_HUMAN

> <UniProt (SwissProt) Primary ID of Target Chain>
P18031

> <UniProt (SwissProt) Secondary ID(s) of Target Chain>
Q5TGD8 Q9BQV9 Q9NQQ4

$$$$
Molecule
  SciTegic10242319433D

 46 50  0  0  0  0            999 V2000
   42.4826   -1.7874    0.9658 O   0  0
   43.1094   -1.6732   -0.4102 S   0  0
   43.5531   -0.4376    0.3486 O   0  0
   36.7062   -4.1006   -0.0572 C   0  0
   36.6927   -5.4207    0.1115 C   0  0
   37.9434   -6.1590    0.1641 C   0  0
   37.9957   -3.3940   -0.1939 C   0  0
   39.1360   -4.0851   -0.1408 C   0  0
   39.1027   -5.5143    0.0499 C   0  0
   40.3311   -6.2405    0.1385 C   0  0
   41.5084   -5.6212    0.0719 C   0  0
   41.5963   -4.0932   -0.1194 C   0  0
   40.4383   -3.4018   -0.2355 C   0  0
   42.9345   -3.4048   -0.1676 N   0  0
   44.1698   -4.1341    0.0259 C   0  0
   45.2232   -3.1726   -0.2905 C   0  0
   44.7851   -1.9316   -0.6388 N   0  0
   46.4147   -3.4970   -0.3399 O   0  0
   40.4196   -2.0763   -0.4164 F   0  0
   42.6324   -6.4355    0.1717 O   0  0
   35.4309   -3.3771   -0.0508 C   0  0
   35.2691   -2.0683   -0.1714 C   0  0
   33.8856   -1.8940   -0.0583 N   0  0
   33.2595   -3.0750    0.1272 N   0  0
   34.1335   -4.0043    0.1372 C   0  0
   33.2234   -0.6170   -0.0246 C   0  0
   31.7739   -0.7964    0.4888 C   0  0
   30.8885    0.3666    0.0403 C   0  0
   30.7989   -1.0214   -0.6687 C   0  0
   35.7438   -5.9480    0.2103 H   0  0
   37.9323   -7.2408    0.2971 H   0  0
   38.0160   -2.3137   -0.3374 H   0  0
   40.3036   -7.3230    0.2630 H   0  0
   44.2575   -4.4741    1.0578 H   0  0
   44.2185   -4.9917   -0.6452 H   0  0
   45.4377   -1.1768   -1.0253 H   0  0
   42.6199   -6.9388    1.0932 H   0  0
   36.0337   -1.3064   -0.3229 H   0  0
   33.9426   -5.0700    0.2633 H   0  0
   33.7639    0.0542    0.6429 H   0  0
   33.2026   -0.1927   -1.0284 H   0  0
   31.5942   -1.2759    1.4510 H   0  0
   30.0724    0.7091    0.6765 H   0  0
   31.3269    1.2186   -0.4794 H   0  0
   29.9203   -1.6511   -0.5289 H   0  0
   31.1748   -1.1417   -1.6848 H   0  0
  2  1  2  0
  3  2  2  0
  4  5  2  0
  5  6  1  0
  6  9  2  0
  8  7  2  0
  7  4  1  0
  8  9  1  0
  9 10  1  0
 10 11  2  0
 11 12  1  0
 12 13  2  0
 13  8  1  0
 14 15  1  0
 15 16  1  0
 16 17  1  0
 17  2  1  0
  2 14  1  0
 12 14  1  0
 16 18  2  0
 13 19  1  0
 11 20  1  0
 21 22  2  0
 22 23  1  0
 23 24  1  0
 24 25  2  0
 25 21  1  0
  4 21  1  0
 23 26  1  0
 26 27  1  0
 28 27  1  0
 29 28  1  0
 27 29  1  0
  5 30  1  0
  6 31  1  0
  7 32  1  0
 10 33  1  0
 15 34  1  0
 15 35  1  0
 17 36  1  0
 20 37  1  0
 22 38  1  0
 25 39  1  0
 26 40  1  0
 26 41  1  0
 27 42  1  0
 28 43  1  0
 28 44  1  0
 29 45  1  0
 29 46  1  0
M  END
> <Name>
Molecule

> <Clean Energy>
135.652

> <From>
www.bindingDB.org

> <BindingDB Reactant_set_id>
51435738

> <Ligand InChI>
InChI=1S/C19H17FN4O4S/c20-18-15-5-12(14-7-21-23(9-14)8-11-1-2-11)3-4-13(15)6-16(25)19(18)24-10-17(26)22-29(24,27)28/h3-7,9,11,25H,1-2,8,10H2,(H,22,26)

> <Ligand InChI Key>
WIFWJQAGHBRNHU-UHFFFAOYSA-N

> <BindingDB MonomerID>
50579996

> <BindingDB Ligand Name>
CHEMBL5092308

> <Target Name>
Tyrosine-protein phosphatase non-receptor type 1

> <Target Source Organism According to Curator or DataSource>
Homo sapiens

> <IC50 (nM)>
<1.000000

> <Curation/DataSource>
ChEMBL

> <Article DOI>
10.1021/acsmedchemlett.1c00678

> <BindingDB Entry DOI>
10.7270/Q2SB49MH

> <PMID>
35059117

> <Authors>
Abdel-Magid, AF

> <Institution>
Therachem Research Medilab, LLC

> <Link to Ligand in BindingDB>
http://www.bindingdb.org/bind/chemsearch/marvin/MolStructure.jsp?monomerid=50579996

> <Link to Ligand-Target Pair in BindingDB>
http://www.bindingdb.org/jsp/dbsearch/PrimarySearch_ki.jsp?energyterm=kJ/mole&tag=pol&polymerid=2622&target=Tyrosine-protein+phosphatase+non-receptor+type+1&column=ki&startPg=0&Increment=50&submit=Sea
rch
http://www.bindingdb.org/jsp/dbsearch/PrimarySearch_ki.jsp?energyterm=kJ/mole&tag=r21&monomerid=50579996&enzyme=Tyrosine-protein+phosphatase+non-receptor+type+1&column=ki&startPg=0&Increment=50&submit
=Search

> <PubChem CID of Ligand>
153192059

> <PubChem SID of Ligand>
476025001

> <Number of Protein Chains in Target (bigger than 1 implies a multichain complex)>
1

> <BindingDB Target Chain Sequence>
MEMEKEFEQIDKSGSWAAIYQDIRHEASDFPCRVAKLPKNKNRNRYRDVSPFDHSRIKLHQEDNDYINASLIKMEEAQRSYILTQGPLPNTCGHFWEMVWEQKSRGVVMLNRVMEKGSLKCAQYWPQKEEKEMIFEDTNLKLTLISEDIKSYYTVRQLELENLTTQETREILHFHYTTWPDFGVPESPASFLNFLFKVRE
SGSLSPEHGPVVVHCSAGIGRSGTFCLADTCLLLMDKRKDPSSVDIKKVLLEMRKFRMGLIQTADQLRFSYLAVIEGAKFIMGDSSVQDQWKELSHEDLEPPPEHIPPPPRPPKRILEPHNGKCREFFPNHQWVKEETQEDKDCPIKEEKGSPLNAAPYGIESMSQDTEVRSRVVGGSLRGAQAASPAKGEPSLPEKDED
HALSYWKPFLVNMCVATVLTAGAYLCYRFLFNSNT

> <PDB ID(s) of Target Chain>
1BZJ,1G7G,1GFY,1JF7,1KAK,1KAV,1LQF,1NL9,1NNY,1NO6,1NZ7,1OEM,1OEO,1OES,1OET,1OEU,1OEV,1ONY,1ONZ,1PH0,1PXH,1PYN,1Q1M,1Q6J,1Q6M,1Q6N,1Q6P,1Q6S,1Q6T,1QXK,1SUG,1T48,1T49,1T4J,1WAX,1XBO,2AZR,2B07,2BGD,2BGE,
2CM2,2CM3,2CM7,2CM8,2CMA,2CMB,2CMC,2CNE,2CNF,2CNG,2CNH,2CNI,2F6T,2F6V,2F6W,2F6Y,2F6Z,2F70,2F71,2FJN,2H4G,2H4K,2HB1,2HNP,2HNQ,2QBP,2QBQ,2QBR,2QBS,2VEU,2VEV,2VEW,2VEX,2VEY,2ZMM,2ZN7,3A5J,3CWE,3D9C,3EAX,
3EB1,3EU0,3I7Z,3I80,3SME,4BJO,4I8N,4QBW,4Y14,5K9V,5K9W,5KA0,5KA1,5T19,6B90,6NTP,6W30,7KEY,7KLX,7LFO,7MN9,7MNA,8DU7,8G65,8G67,8G68,8G69,8G6A,8SKL

> <UniProt (SwissProt) Recommended Name of Target Chain>
Tyrosine-protein phosphatase non-receptor type 1

> <UniProt (SwissProt) Entry Name of Target Chain>
PTN1_HUMAN

> <UniProt (SwissProt) Primary ID of Target Chain>
P18031

> <UniProt (SwissProt) Secondary ID(s) of Target Chain>
Q5TGD8 Q9BQV9 Q9NQQ4

$$$$
Molecule
  SciTegic10242319433D

 43 45  0  0  0  0            999 V2000
    1.0173  -11.9784   -0.0428 C   0  0  2  0  0  0
   11.6194   -8.8104    1.3327 O   0  0
   12.2573   -9.3859    0.0821 S   0  0
   11.7588   -8.7010   -1.1766 O   0  0
    5.9199  -11.8787   -0.0055 C   0  0
    5.9138  -13.2110   -0.0685 C   0  0
    7.1824  -13.9428   -0.1116 C   0  0
    7.2037  -11.1621    0.0162 C   0  0
    8.3514  -11.8407   -0.0271 C   0  0
    8.3357  -13.2771   -0.0907 C   0  0
    9.5863  -13.9878   -0.1294 C   0  0
   10.7485  -13.3365   -0.1054 C   0  0
   10.7980  -11.8041   -0.0379 C   0  0
    9.6284  -11.1275   -0.0051 C   0  0
   12.0914  -11.0808   -0.0056 N   0  0
   13.3989  -11.7480    0.0049 C   0  0
   14.4322  -10.6239    0.1303 C   0  0
   13.9212   -9.3311    0.1789 N   0  0
   15.6458  -10.8525    0.1878 O   0  0
    9.5877   -9.7980    0.0509 F   0  0
   11.9012  -14.1162   -0.1480 O   0  0
    4.7167  -11.1445    0.0403 O   0  0
    3.5532  -11.9936   -0.0146 C   0  0
    2.2882  -11.1143    0.0942 C   0  0
   -0.2266  -11.0775    0.0818 C   0  0
    0.9912  -12.9697    0.9867 O   0  0
    1.0147  -12.4673   -1.0170 H   0  0
    4.9685  -13.7534   -0.0880 H   0  0
    7.1823  -15.0317   -0.1606 H   0  0
    7.2176  -10.0734    0.0677 H   0  0
    9.5829  -15.0766   -0.1792 H   0  0
   13.4721  -12.4286    0.8532 H   0  0
   13.5505  -12.3029   -0.9209 H   0  0
   14.5056   -8.4390    0.2652 H   0  0
   11.9185  -14.7618    0.6800 H   0  0
    3.5410  -12.5370   -0.9594 H   0  0
    3.5783  -12.7027    0.8128 H   0  0
    2.2802  -10.6156    1.0634 H   0  0
    2.3013  -10.3671   -0.6993 H   0  0
   -1.1267  -11.6846   -0.0146 H   0  0
   -0.2109  -10.3244   -0.7062 H   0  0
   -0.2235  -10.5853    1.0543 H   0  0
    1.8386  -13.5841    0.9033 H   0  0
  3  2  2  0
  4  3  2  0
  5  6  2  0
  6  7  1  0
  7 10  2  0
  9  8  2  0
  8  5  1  0
  9 10  1  0
 10 11  1  0
 11 12  2  0
 12 13  1  0
 13 14  2  0
 14  9  1  0
 15 16  1  0
 16 17  1  0
 17 18  1  0
 18  3  1  0
  3 15  1  0
 13 15  1  0
 17 19  2  0
 14 20  1  0
 12 21  1  0
  5 22  1  0
 22 23  1  0
 23 24  1  0
 24  1  1  0
  1 25  1  0
  1 26  1  0
  1 27  1  0
  6 28  1  0
  7 29  1  0
  8 30  1  0
 11 31  1  0
 16 32  1  0
 16 33  1  0
 18 34  1  0
 21 35  1  0
 23 36  1  0
 23 37  1  0
 24 38  1  0
 24 39  1  0
 25 40  1  0
 25 41  1  0
 25 42  1  0
 26 43  1  0
M  END
> <Name>
Molecule

> <Clean Energy>
12.2994

> <From>
www.bindingDB.org

> <BindingDB Reactant_set_id>
51435739

> <Ligand InChI>
InChI=1S/C16H17FN2O6S/c1-9(20)4-5-25-11-3-2-10-6-13(21)16(15(17)12(10)7-11)19-8-14(22)18-26(19,23)24/h2-3,6-7,9,20-21H,4-5,8H2,1H3,(H,18,22)/t9-/m0/s1

> <Ligand InChI Key>
UUMUNQAHQUYRBJ-VIFPVBQESA-N

> <BindingDB MonomerID>
50579997

> <BindingDB Ligand Name>
CHEMBL5085615

> <Target Name>
Tyrosine-protein phosphatase non-receptor type 1

> <Target Source Organism According to Curator or DataSource>
Homo sapiens

> <IC50 (nM)>
1

> <Curation/DataSource>
ChEMBL

> <Article DOI>
10.1021/acsmedchemlett.1c00678

> <BindingDB Entry DOI>
10.7270/Q2SB49MH

> <PMID>
35059117

> <Authors>
Abdel-Magid, AF

> <Institution>
Therachem Research Medilab, LLC

> <Link to Ligand in BindingDB>
http://www.bindingdb.org/bind/chemsearch/marvin/MolStructure.jsp?monomerid=50579997

> <Link to Ligand-Target Pair in BindingDB>
http://www.bindingdb.org/jsp/dbsearch/PrimarySearch_ki.jsp?energyterm=kJ/mole&tag=pol&polymerid=2622&target=Tyrosine-protein+phosphatase+non-receptor+type+1&column=ki&startPg=0&Increment=50&submit=Sea
rch
http://www.bindingdb.org/jsp/dbsearch/PrimarySearch_ki.jsp?energyterm=kJ/mole&tag=r21&monomerid=50579997&enzyme=Tyrosine-protein+phosphatase+non-receptor+type+1&column=ki&startPg=0&Increment=50&submit
=Search

> <PubChem CID of Ligand>
155485030

> <PubChem SID of Ligand>
476025002

> <Number of Protein Chains in Target (bigger than 1 implies a multichain complex)>
1

> <BindingDB Target Chain Sequence>
MEMEKEFEQIDKSGSWAAIYQDIRHEASDFPCRVAKLPKNKNRNRYRDVSPFDHSRIKLHQEDNDYINASLIKMEEAQRSYILTQGPLPNTCGHFWEMVWEQKSRGVVMLNRVMEKGSLKCAQYWPQKEEKEMIFEDTNLKLTLISEDIKSYYTVRQLELENLTTQETREILHFHYTTWPDFGVPESPASFLNFLFKVRE
SGSLSPEHGPVVVHCSAGIGRSGTFCLADTCLLLMDKRKDPSSVDIKKVLLEMRKFRMGLIQTADQLRFSYLAVIEGAKFIMGDSSVQDQWKELSHEDLEPPPEHIPPPPRPPKRILEPHNGKCREFFPNHQWVKEETQEDKDCPIKEEKGSPLNAAPYGIESMSQDTEVRSRVVGGSLRGAQAASPAKGEPSLPEKDED
HALSYWKPFLVNMCVATVLTAGAYLCYRFLFNSNT

> <PDB ID(s) of Target Chain>
1BZJ,1G7G,1GFY,1JF7,1KAK,1KAV,1LQF,1NL9,1NNY,1NO6,1NZ7,1OEM,1OEO,1OES,1OET,1OEU,1OEV,1ONY,1ONZ,1PH0,1PXH,1PYN,1Q1M,1Q6J,1Q6M,1Q6N,1Q6P,1Q6S,1Q6T,1QXK,1SUG,1T48,1T49,1T4J,1WAX,1XBO,2AZR,2B07,2BGD,2BGE,
2CM2,2CM3,2CM7,2CM8,2CMA,2CMB,2CMC,2CNE,2CNF,2CNG,2CNH,2CNI,2F6T,2F6V,2F6W,2F6Y,2F6Z,2F70,2F71,2FJN,2H4G,2H4K,2HB1,2HNP,2HNQ,2QBP,2QBQ,2QBR,2QBS,2VEU,2VEV,2VEW,2VEX,2VEY,2ZMM,2ZN7,3A5J,3CWE,3D9C,3EAX,
3EB1,3EU0,3I7Z,3I80,3SME,4BJO,4I8N,4QBW,4Y14,5K9V,5K9W,5KA0,5KA1,5T19,6B90,6NTP,6W30,7KEY,7KLX,7LFO,7MN9,7MNA,8DU7,8G65,8G67,8G68,8G69,8G6A,8SKL

> <UniProt (SwissProt) Recommended Name of Target Chain>
Tyrosine-protein phosphatase non-receptor type 1

> <UniProt (SwissProt) Entry Name of Target Chain>
PTN1_HUMAN

> <UniProt (SwissProt) Primary ID of Target Chain>
P18031

> <UniProt (SwissProt) Secondary ID(s) of Target Chain>
Q5TGD8 Q9BQV9 Q9NQQ4

$$$$
Molecule
  SciTegic10242319433D

 43 46  0  0  0  0            999 V2000
   29.9473  -11.9071    0.3382 F   0  0
   31.0799  -11.2549   -0.1122 C   0  0
   31.0406   -9.8913   -0.3189 F   0  0
   43.0923   -8.4090    1.3750 O   0  0
   43.7106   -8.9414    0.0961 S   0  0
   43.2152   -8.1959   -1.1284 O   0  0
   37.3065  -11.4118    0.0207 C   0  0
   37.3170  -12.7450    0.0325 C   0  0
   38.5854  -13.4652    0.0044 C   0  0
   38.5958  -10.6782   -0.0124 C   0  0
   39.7488  -11.3536   -0.0317 C   0  0
   39.7355  -12.7948   -0.0264 C   0  0
   40.9795  -13.5093   -0.0537 C   0  0
   42.1459  -12.8667   -0.0704 C   0  0
   42.2073  -11.3334   -0.0577 C   0  0
   41.0445  -10.6452   -0.0442 C   0  0
   43.5151  -10.6282   -0.0536 N   0  0
   44.8135  -11.3153   -0.0874 C   0  0
   45.8675  -10.2163    0.0677 C   0  0
   45.3787   -8.9186    0.1780 N   0  0
   47.0777  -10.4683    0.1000 O   0  0
   41.0206   -9.3113   -0.0354 F   0  0
   43.2892  -13.6598   -0.0949 O   0  0
   36.0776  -10.7027    0.0521 O   0  0
   34.9446  -11.6071    0.1346 C   0  0
   33.6153  -10.8097    0.1690 C   0  0
   32.4234  -11.7737    0.4127 C   0  0  2  0  0  0
   31.9532  -12.1489   -1.0171 C   0  0
   36.3776  -13.2970    0.0632 H   0  0
   38.5917  -14.5552    0.0087 H   0  0
   38.6025   -9.5882   -0.0211 H   0  0
   40.9697  -14.5992   -0.0608 H   0  0
   44.8865  -12.0302    0.7322 H   0  0
   44.9436  -11.8353   -1.0365 H   0  0
   45.9790   -8.0409    0.2969 H   0  0
   43.3101  -14.2711    0.7586 H   0  0
   34.9463  -12.2643   -0.7349 H   0  0
   35.0280  -12.2045    1.0425 H   0  0
   33.6558  -10.0754    0.9735 H   0  0
   33.4767  -10.2984   -0.7836 H   0  0
   32.4632  -12.5233    1.2030 H   0  0
   31.6427  -13.1697   -1.2400 H   0  0
   32.4540  -11.7229   -1.8865 H   0  0
  2  1  1  0
  3  2  1  0
  5  4  2  0
  6  5  2  0
  7  8  2  0
  8  9  1  0
  9 12  2  0
 11 10  2  0
 10  7  1  0
 11 12  1  0
 12 13  1  0
 13 14  2  0
 14 15  1  0
 15 16  2  0
 16 11  1  0
 17 18  1  0
 18 19  1  0
 19 20  1  0
 20  5  1  0
  5 17  1  0
 15 17  1  0
 19 21  2  0
 16 22  1  0
 14 23  1  0
  7 24  1  0
 24 25  1  0
 25 26  1  0
 26 27  1  0
  2 27  1  0
 28  2  1  0
 27 28  1  0
  8 29  1  0
  9 30  1  0
 10 31  1  0
 13 32  1  0
 18 33  1  0
 18 34  1  0
 20 35  1  0
 23 36  1  0
 25 37  1  0
 25 38  1  0
 26 39  1  0
 26 40  1  0
 27 41  1  0
 28 42  1  0
 28 43  1  0
M  END
> <Name>
Molecule

> <Clean Energy>
52.5105

> <From>
www.bindingDB.org

> <BindingDB Reactant_set_id>
51435741

> <Ligand InChI>
InChI=1S/C17H15F3N2O5S/c18-15-12-6-11(27-4-3-10-7-17(10,19)20)2-1-9(12)5-13(23)16(15)22-8-14(24)21-28(22,25)26/h1-2,5-6,10,23H,3-4,7-8H2,(H,21,24)

> <Ligand InChI Key>
NPMGFSKWFRNUOR-UHFFFAOYSA-N

> <BindingDB MonomerID>
50579999

> <BindingDB Ligand Name>
CHEMBL5075269

> <Target Name>
Tyrosine-protein phosphatase non-receptor type 1

> <Target Source Organism According to Curator or DataSource>
Homo sapiens

> <IC50 (nM)>
<1.000000

> <Curation/DataSource>
ChEMBL

> <Article DOI>
10.1021/acsmedchemlett.1c00678

> <BindingDB Entry DOI>
10.7270/Q2SB49MH

> <PMID>
35059117

> <Authors>
Abdel-Magid, AF

> <Institution>
Therachem Research Medilab, LLC

> <Link to Ligand in BindingDB>
http://www.bindingdb.org/bind/chemsearch/marvin/MolStructure.jsp?monomerid=50579999

> <Link to Ligand-Target Pair in BindingDB>
http://www.bindingdb.org/jsp/dbsearch/PrimarySearch_ki.jsp?energyterm=kJ/mole&tag=pol&polymerid=2622&target=Tyrosine-protein+phosphatase+non-receptor+type+1&column=ki&startPg=0&Increment=50&submit=Sea
rch
http://www.bindingdb.org/jsp/dbsearch/PrimarySearch_ki.jsp?energyterm=kJ/mole&tag=r21&monomerid=50579999&enzyme=Tyrosine-protein+phosphatase+non-receptor+type+1&column=ki&startPg=0&Increment=50&submit
=Search

> <PubChem CID of Ligand>
155485084

> <PubChem SID of Ligand>
476025004

> <Number of Protein Chains in Target (bigger than 1 implies a multichain complex)>
1

> <BindingDB Target Chain Sequence>
MEMEKEFEQIDKSGSWAAIYQDIRHEASDFPCRVAKLPKNKNRNRYRDVSPFDHSRIKLHQEDNDYINASLIKMEEAQRSYILTQGPLPNTCGHFWEMVWEQKSRGVVMLNRVMEKGSLKCAQYWPQKEEKEMIFEDTNLKLTLISEDIKSYYTVRQLELENLTTQETREILHFHYTTWPDFGVPESPASFLNFLFKVRE
SGSLSPEHGPVVVHCSAGIGRSGTFCLADTCLLLMDKRKDPSSVDIKKVLLEMRKFRMGLIQTADQLRFSYLAVIEGAKFIMGDSSVQDQWKELSHEDLEPPPEHIPPPPRPPKRILEPHNGKCREFFPNHQWVKEETQEDKDCPIKEEKGSPLNAAPYGIESMSQDTEVRSRVVGGSLRGAQAASPAKGEPSLPEKDED
HALSYWKPFLVNMCVATVLTAGAYLCYRFLFNSNT

> <PDB ID(s) of Target Chain>
1BZJ,1G7G,1GFY,1JF7,1KAK,1KAV,1LQF,1NL9,1NNY,1NO6,1NZ7,1OEM,1OEO,1OES,1OET,1OEU,1OEV,1ONY,1ONZ,1PH0,1PXH,1PYN,1Q1M,1Q6J,1Q6M,1Q6N,1Q6P,1Q6S,1Q6T,1QXK,1SUG,1T48,1T49,1T4J,1WAX,1XBO,2AZR,2B07,2BGD,2BGE,
2CM2,2CM3,2CM7,2CM8,2CMA,2CMB,2CMC,2CNE,2CNF,2CNG,2CNH,2CNI,2F6T,2F6V,2F6W,2F6Y,2F6Z,2F70,2F71,2FJN,2H4G,2H4K,2HB1,2HNP,2HNQ,2QBP,2QBQ,2QBR,2QBS,2VEU,2VEV,2VEW,2VEX,2VEY,2ZMM,2ZN7,3A5J,3CWE,3D9C,3EAX,
3EB1,3EU0,3I7Z,3I80,3SME,4BJO,4I8N,4QBW,4Y14,5K9V,5K9W,5KA0,5KA1,5T19,6B90,6NTP,6W30,7KEY,7KLX,7LFO,7MN9,7MNA,8DU7,8G65,8G67,8G68,8G69,8G6A,8SKL

> <UniProt (SwissProt) Recommended Name of Target Chain>
Tyrosine-protein phosphatase non-receptor type 1

> <UniProt (SwissProt) Entry Name of Target Chain>
PTN1_HUMAN

> <UniProt (SwissProt) Primary ID of Target Chain>
P18031

> <UniProt (SwissProt) Secondary ID(s) of Target Chain>
Q5TGD8 Q9BQV9 Q9NQQ4

$$$$
Molecule
  SciTegic10242319433D

 44 47  0  0  0  0            999 V2000
   11.5218  -16.3580    0.9056 O   0  0
   12.1250  -16.3588   -0.4856 S   0  0
   12.6501  -15.0848    0.1477 O   0  0
    5.8412  -19.1022   -0.1244 C   0  0
    5.8906  -20.4230    0.0256 C   0  0
    7.1816  -21.0947    0.1140 C   0  0
    7.0953  -18.3265   -0.2089 C   0  0
    8.2763  -18.9615   -0.1345 C   0  0
    8.3039  -20.3892    0.0380 C   0  0
    9.5729  -21.0511    0.1344 C   0  0
   10.7138  -20.3732    0.0845 C   0  0
   10.7347  -18.8427   -0.0912 C   0  0
    9.5348  -18.2029   -0.2060 C   0  0
   12.0311  -18.0822   -0.1312 N   0  0
   13.2920  -18.7437    0.1208 C   0  0
   14.2954  -17.7770   -0.2963 C   0  0
   13.7995  -16.5972   -0.7532 N   0  0
   15.4965  -18.0616   -0.3520 O   0  0
    9.4564  -16.8829   -0.3717 F   0  0
   11.8799  -21.1311    0.1786 O   0  0
    4.5931  -18.4581   -0.2084 N   0  0
    3.3864  -19.2478   -0.2988 C   0  0
    2.1377  -18.3437   -0.2643 C   0  0
    0.8813  -19.2043   -0.5364 C   0  0
   -0.3438  -18.6244    0.1705 C   0  0
    0.3831  -19.8861    0.7371 C   0  0
    4.9685  -21.0015    0.0824 H   0  0
    7.2254  -22.1762    0.2426 H   0  0
    7.0624  -17.2438   -0.3310 H   0  0
    9.6014  -22.1344    0.2511 H   0  0
   13.3994  -18.9790    1.1796 H   0  0
   13.3712  -19.6594   -0.4653 H   0  0
   14.4112  -15.8697   -1.2446 H   0  0
   11.8887  -21.6487    1.0921 H   0  0
    4.5379  -17.3895   -0.2053 H   0  0
    3.3956  -19.8089   -1.2332 H   0  0
    3.3490  -19.9409    0.5416 H   0  0
    2.0536  -17.8751    0.7162 H   0  0
    2.2244  -17.5726   -1.0299 H   0  0
    0.7652  -19.7035   -1.4983 H   0  0
   -0.2727  -17.6710    0.6942 H   0  0
   -1.3314  -18.7188   -0.2810 H   0  0
    0.9628  -19.8160    1.6575 H   0  0
   -0.0958  -20.8637    0.6824 H   0  0
  2  1  2  0
  3  2  2  0
  4  5  2  0
  5  6  1  0
  6  9  2  0
  8  7  2  0
  7  4  1  0
  8  9  1  0
  9 10  1  0
 10 11  2  0
 11 12  1  0
 12 13  2  0
 13  8  1  0
 14 15  1  0
 15 16  1  0
 16 17  1  0
 17  2  1  0
  2 14  1  0
 12 14  1  0
 16 18  2  0
 13 19  1  0
 11 20  1  0
  4 21  1  0
 21 22  1  0
 22 23  1  0
 23 24  1  0
 25 24  1  0
 26 25  1  0
 24 26  1  0
  5 27  1  0
  6 28  1  0
  7 29  1  0
 10 30  1  0
 15 31  1  0
 15 32  1  0
 17 33  1  0
 20 34  1  0
 21 35  1  0
 22 36  1  0
 22 37  1  0
 23 38  1  0
 23 39  1  0
 24 40  1  0
 25 41  1  0
 25 42  1  0
 26 43  1  0
 26 44  1  0
M  END
> <Name>
Molecule

> <Clean Energy>
119.076

> <From>
www.bindingDB.org

> <BindingDB Reactant_set_id>
51435742

> <Ligand InChI>
InChI=1S/C17H18FN3O4S/c18-16-13-8-12(19-6-5-10-1-2-10)4-3-11(13)7-14(22)17(16)21-9-15(23)20-26(21,24)25/h3-4,7-8,10,19,22H,1-2,5-6,9H2,(H,20,23)

> <Ligand InChI Key>
VILXHPHHLYDHSF-UHFFFAOYSA-N

> <BindingDB MonomerID>
50580000

> <BindingDB Ligand Name>
CHEMBL5076419

> <Target Name>
Tyrosine-protein phosphatase non-receptor type 1

> <Target Source Organism According to Curator or DataSource>
Homo sapiens

> <IC50 (nM)>
1

> <Curation/DataSource>
ChEMBL

> <Article DOI>
10.1021/acsmedchemlett.1c00678

> <BindingDB Entry DOI>
10.7270/Q2SB49MH

> <PMID>
35059117

> <Authors>
Abdel-Magid, AF

> <Institution>
Therachem Research Medilab, LLC

> <Link to Ligand in BindingDB>
http://www.bindingdb.org/bind/chemsearch/marvin/MolStructure.jsp?monomerid=50580000

> <Link to Ligand-Target Pair in BindingDB>
http://www.bindingdb.org/jsp/dbsearch/PrimarySearch_ki.jsp?energyterm=kJ/mole&tag=pol&polymerid=2622&target=Tyrosine-protein+phosphatase+non-receptor+type+1&column=ki&startPg=0&Increment=50&submit=Sea
rch
http://www.bindingdb.org/jsp/dbsearch/PrimarySearch_ki.jsp?energyterm=kJ/mole&tag=r21&monomerid=50580000&enzyme=Tyrosine-protein+phosphatase+non-receptor+type+1&column=ki&startPg=0&Increment=50&submit
=Search

> <PubChem CID of Ligand>
155103195

> <PubChem SID of Ligand>
476025005

> <Number of Protein Chains in Target (bigger than 1 implies a multichain complex)>
1

> <BindingDB Target Chain Sequence>
MEMEKEFEQIDKSGSWAAIYQDIRHEASDFPCRVAKLPKNKNRNRYRDVSPFDHSRIKLHQEDNDYINASLIKMEEAQRSYILTQGPLPNTCGHFWEMVWEQKSRGVVMLNRVMEKGSLKCAQYWPQKEEKEMIFEDTNLKLTLISEDIKSYYTVRQLELENLTTQETREILHFHYTTWPDFGVPESPASFLNFLFKVRE
SGSLSPEHGPVVVHCSAGIGRSGTFCLADTCLLLMDKRKDPSSVDIKKVLLEMRKFRMGLIQTADQLRFSYLAVIEGAKFIMGDSSVQDQWKELSHEDLEPPPEHIPPPPRPPKRILEPHNGKCREFFPNHQWVKEETQEDKDCPIKEEKGSPLNAAPYGIESMSQDTEVRSRVVGGSLRGAQAASPAKGEPSLPEKDED
HALSYWKPFLVNMCVATVLTAGAYLCYRFLFNSNT

> <PDB ID(s) of Target Chain>
1BZJ,1G7G,1GFY,1JF7,1KAK,1KAV,1LQF,1NL9,1NNY,1NO6,1NZ7,1OEM,1OEO,1OES,1OET,1OEU,1OEV,1ONY,1ONZ,1PH0,1PXH,1PYN,1Q1M,1Q6J,1Q6M,1Q6N,1Q6P,1Q6S,1Q6T,1QXK,1SUG,1T48,1T49,1T4J,1WAX,1XBO,2AZR,2B07,2BGD,2BGE,
2CM2,2CM3,2CM7,2CM8,2CMA,2CMB,2CMC,2CNE,2CNF,2CNG,2CNH,2CNI,2F6T,2F6V,2F6W,2F6Y,2F6Z,2F70,2F71,2FJN,2H4G,2H4K,2HB1,2HNP,2HNQ,2QBP,2QBQ,2QBR,2QBS,2VEU,2VEV,2VEW,2VEX,2VEY,2ZMM,2ZN7,3A5J,3CWE,3D9C,3EAX,
3EB1,3EU0,3I7Z,3I80,3SME,4BJO,4I8N,4QBW,4Y14,5K9V,5K9W,5KA0,5KA1,5T19,6B90,6NTP,6W30,7KEY,7KLX,7LFO,7MN9,7MNA,8DU7,8G65,8G67,8G68,8G69,8G6A,8SKL

> <UniProt (SwissProt) Recommended Name of Target Chain>
Tyrosine-protein phosphatase non-receptor type 1

> <UniProt (SwissProt) Entry Name of Target Chain>
PTN1_HUMAN

> <UniProt (SwissProt) Primary ID of Target Chain>
P18031

> <UniProt (SwissProt) Secondary ID(s) of Target Chain>
Q5TGD8 Q9BQV9 Q9NQQ4

$$$$
Molecule
  SciTegic10242319433D

 47 49  0  0  0  0            999 V2000
   31.3443  -27.7837    1.4032 C   0  0
   31.1679  -26.8851   -0.3454 C   0  0
   30.5643  -28.2976   -0.4913 C   0  0
   42.9785  -24.3378    1.2718 O   0  0
   43.6486  -24.2214   -0.0431 S   0  0
   43.0046  -22.9592   -0.6258 O   0  0
   36.7600  -26.9774    0.0060 C   0  0
   36.8593  -28.3217    0.0035 C   0  0
   38.2433  -28.9833    0.0134 C   0  0
   38.1524  -26.2034    0.0067 C   0  0
   39.3687  -26.8448    0.0072 C   0  0
   39.4012  -28.2835    0.0152 C   0  0
   40.7609  -28.9647    0.0242 C   0  0
   41.9336  -28.2825   -0.0337 C   0  0
   41.9688  -26.7221   -0.1200 C   0  0
   40.7535  -26.0764   -0.0683 C   0  0
   43.3812  -25.9334   -0.2752 N   0  0
   44.7434  -26.6194   -0.0873 C   0  0
   45.8383  -25.4722   -0.0052 C   0  0
   45.3414  -24.1739   -0.0032 N   0  0
   47.0610  -25.6964    0.0487 O   0  0
   40.7171  -24.7525   -0.1177 F   0  0
   43.1363  -29.0371   -0.0074 O   0  0
   35.7265  -29.1553   -0.0030 O   0  0
   35.3720  -26.2084   -0.0182 O   0  0
   34.0108  -27.0123   -0.1469 C   0  0
   32.6430  -26.1217   -0.1688 C   0  0
   29.9648  -25.9939   -0.1803 C   0  0
   29.0459  -25.3025   -0.0595 N   0  0
   31.8266  -27.1101    2.1114 H   0  0
   31.9481  -28.6842    1.2902 H   0  0
   30.3559  -28.0538    1.7748 H   0  0
   30.2002  -28.4343   -1.5096 H   0  0
   29.7366  -28.4137    0.2085 H   0  0
   31.3289  -29.0440   -0.2761 H   0  0
   38.2965  -30.0720    0.0194 H   0  0
   38.1403  -25.1134    0.0067 H   0  0
   40.7958  -30.0527    0.0799 H   0  0
   44.7439  -27.2027    0.8335 H   0  0
   44.9515  -27.2745   -0.9332 H   0  0
   45.9352  -23.2840    0.0200 H   0  0
   43.1831  -29.5911    0.8833 H   0  0
   35.1474  -28.9664    0.8523 H   0  0
   34.0495  -27.5839   -1.0741 H   0  0
   33.9480  -27.6960    0.6997 H   0  0
   32.6059  -25.5744    0.7731 H   0  0
   32.7365  -25.4175   -0.9955 H   0  0
  2  1  1  0
  3  2  1  0
  5  4  2  0
  6  5  2  0
  7  8  2  0
  8  9  1  0
  9 12  2  0
 11 10  2  0
 10  7  1  0
 11 12  1  0
 12 13  1  0
 13 14  2  0
 14 15  1  0
 15 16  2  0
 16 11  1  0
 17 18  1  0
 18 19  1  0
 19 20  1  0
 20  5  1  0
  5 17  1  0
 15 17  1  0
 19 21  2  0
 16 22  1  0
 14 23  1  0
  8 24  1  0
  7 25  1  0
 25 26  1  0
 26 27  1  0
 27  2  1  0
  2 28  1  0
 28 29  3  0
  1 30  1  0
  1 31  1  0
  1 32  1  0
  3 33  1  0
  3 34  1  0
  3 35  1  0
  9 36  1  0
 10 37  1  0
 13 38  1  0
 18 39  1  0
 18 40  1  0
 20 41  1  0
 23 42  1  0
 24 43  1  0
 26 44  1  0
 26 45  1  0
 27 46  1  0
 27 47  1  0
M  END
> <Name>
Molecule

> <Clean Energy>
144.601

> <From>
www.bindingDB.org

> <BindingDB Reactant_set_id>
51435747

> <Ligand InChI>
InChI=1S/C18H18FN3O6S/c1-18(2,9-20)3-4-28-14-7-11-10(5-12(14)23)6-13(24)17(16(11)19)22-8-15(25)21-29(22,26)27/h5-7,23-24H,3-4,8H2,1-2H3,(H,21,25)

> <Ligand InChI Key>
OYNCWBAUKIVNKV-UHFFFAOYSA-N

> <BindingDB MonomerID>
50580005

> <BindingDB Ligand Name>
CHEMBL5093253

> <Target Name>
Tyrosine-protein phosphatase non-receptor type 1

> <Target Source Organism According to Curator or DataSource>
Homo sapiens

> <IC50 (nM)>
<1.000000

> <Curation/DataSource>
ChEMBL

> <Article DOI>
10.1021/acsmedchemlett.1c00678

> <BindingDB Entry DOI>
10.7270/Q2SB49MH

> <PMID>
35059117

> <Authors>
Abdel-Magid, AF

> <Institution>
Therachem Research Medilab, LLC

> <Link to Ligand in BindingDB>
http://www.bindingdb.org/bind/chemsearch/marvin/MolStructure.jsp?monomerid=50580005

> <Link to Ligand-Target Pair in BindingDB>
http://www.bindingdb.org/jsp/dbsearch/PrimarySearch_ki.jsp?energyterm=kJ/mole&tag=pol&polymerid=2622&target=Tyrosine-protein+phosphatase+non-receptor+type+1&column=ki&startPg=0&Increment=50&submit=Sea
rch
http://www.bindingdb.org/jsp/dbsearch/PrimarySearch_ki.jsp?energyterm=kJ/mole&tag=r21&monomerid=50580005&enzyme=Tyrosine-protein+phosphatase+non-receptor+type+1&column=ki&startPg=0&Increment=50&submit
=Search

> <PubChem CID of Ligand>
156506533

> <PubChem SID of Ligand>
476025010

> <Number of Protein Chains in Target (bigger than 1 implies a multichain complex)>
1

> <BindingDB Target Chain Sequence>
MEMEKEFEQIDKSGSWAAIYQDIRHEASDFPCRVAKLPKNKNRNRYRDVSPFDHSRIKLHQEDNDYINASLIKMEEAQRSYILTQGPLPNTCGHFWEMVWEQKSRGVVMLNRVMEKGSLKCAQYWPQKEEKEMIFEDTNLKLTLISEDIKSYYTVRQLELENLTTQETREILHFHYTTWPDFGVPESPASFLNFLFKVRE
SGSLSPEHGPVVVHCSAGIGRSGTFCLADTCLLLMDKRKDPSSVDIKKVLLEMRKFRMGLIQTADQLRFSYLAVIEGAKFIMGDSSVQDQWKELSHEDLEPPPEHIPPPPRPPKRILEPHNGKCREFFPNHQWVKEETQEDKDCPIKEEKGSPLNAAPYGIESMSQDTEVRSRVVGGSLRGAQAASPAKGEPSLPEKDED
HALSYWKPFLVNMCVATVLTAGAYLCYRFLFNSNT

> <PDB ID(s) of Target Chain>
1BZJ,1G7G,1GFY,1JF7,1KAK,1KAV,1LQF,1NL9,1NNY,1NO6,1NZ7,1OEM,1OEO,1OES,1OET,1OEU,1OEV,1ONY,1ONZ,1PH0,1PXH,1PYN,1Q1M,1Q6J,1Q6M,1Q6N,1Q6P,1Q6S,1Q6T,1QXK,1SUG,1T48,1T49,1T4J,1WAX,1XBO,2AZR,2B07,2BGD,2BGE,
2CM2,2CM3,2CM7,2CM8,2CMA,2CMB,2CMC,2CNE,2CNF,2CNG,2CNH,2CNI,2F6T,2F6V,2F6W,2F6Y,2F6Z,2F70,2F71,2FJN,2H4G,2H4K,2HB1,2HNP,2HNQ,2QBP,2QBQ,2QBR,2QBS,2VEU,2VEV,2VEW,2VEX,2VEY,2ZMM,2ZN7,3A5J,3CWE,3D9C,3EAX,
3EB1,3EU0,3I7Z,3I80,3SME,4BJO,4I8N,4QBW,4Y14,5K9V,5K9W,5KA0,5KA1,5T19,6B90,6NTP,6W30,7KEY,7KLX,7LFO,7MN9,7MNA,8DU7,8G65,8G67,8G68,8G69,8G6A,8SKL

> <UniProt (SwissProt) Recommended Name of Target Chain>
Tyrosine-protein phosphatase non-receptor type 1

> <UniProt (SwissProt) Entry Name of Target Chain>
PTN1_HUMAN

> <UniProt (SwissProt) Primary ID of Target Chain>
P18031

> <UniProt (SwissProt) Secondary ID(s) of Target Chain>
Q5TGD8 Q9BQV9 Q9NQQ4

$$$$
Molecule
  SciTegic10242319433D

 57 60  0  0  0  0            999 V2000
    1.8823  -26.3759   -1.4411 O   0  0
    2.0343  -26.0617    0.0346 S   0  0
    1.5232  -27.2345    0.8499 O   0  0
   13.0209  -24.0324    1.3254 O   0  0
   13.6445  -24.5813    0.0557 S   0  0
   13.1658  -23.8414   -1.1789 O   0  0
    7.2151  -26.9857    0.0143 C   0  0
    7.2136  -28.3135    0.0914 C   0  0
    8.4745  -29.0445    0.1095 C   0  0
    8.5083  -26.2583   -0.0426 C   0  0
    9.6584  -26.9473   -0.0234 C   0  0
    9.6289  -28.3870    0.0499 C   0  0
   10.8675  -29.1153    0.0501 C   0  0
   12.0390  -28.4874   -0.0007 C   0  0
   12.1183  -26.9572   -0.0524 C   0  0
   10.9598  -26.2531   -0.0647 C   0  0
   13.4312  -26.2654   -0.0785 N   0  0
   14.7231  -26.9670   -0.1106 C   0  0
   15.7879  -25.8779    0.0437 C   0  0
   15.3118  -24.5752    0.1484 N   0  0
   16.9953  -26.1422    0.0834 O   0  0
   10.9531  -24.9215   -0.1123 F   0  0
   13.1753  -29.2931    0.0027 O   0  0
    5.9208  -26.2687   -0.0367 C   0  0
    5.7929  -24.9589   -0.1964 C   0  0
    4.3236  -24.6155   -0.2733 C   0  0
    3.7305  -25.7990    0.3942 N   0  0
    4.5895  -26.9564    0.0228 C   0  0
    1.0471  -24.5885    0.4210 C   0  0
   -0.4349  -24.8745    0.0689 C   0  0
   -1.3154  -23.6348    0.3518 C   0  0
   -2.7836  -23.9594    0.0097 C   0  0
   -0.8446  -22.4486   -0.5133 C   0  0
    6.2691  -28.8553    0.1412 H   0  0
    8.4713  -30.1327    0.1720 H   0  0
    8.5226  -25.1699   -0.0996 H   0  0
   10.8467  -30.2043    0.0927 H   0  0
   14.7882  -27.6814    0.7100 H   0  0
   14.8484  -27.4897   -1.0589 H   0  0
   15.9202  -23.7034    0.2696 H   0  0
   13.1953  -29.8672    0.8817 H   0  0
    6.6144  -24.2455   -0.2616 H   0  0
    4.0975  -23.6953    0.2653 H   0  0
    3.9858  -24.5252   -1.3057 H   0  0
    4.5694  -27.7376    0.7826 H   0  0
    4.3071  -27.3791   -0.9414 H   0  0
    1.1333  -24.3580    1.4829 H   0  0
    1.4062  -23.7427   -0.1653 H   0  0
   -0.5079  -25.1309   -0.9880 H   0  0
   -0.7904  -25.7102    0.6715 H   0  0
   -1.2388  -23.3681    1.4059 H   0  0
   -3.4052  -23.0864    0.2087 H   0  0
   -3.1239  -24.7943    0.6224 H   0  0
   -2.8611  -24.2273   -1.0440 H   0  0
   -1.4691  -21.5789   -0.3091 H   0  0
   -0.9245  -22.7130   -1.5678 H   0  0
    0.1930  -22.2140   -0.2756 H   0  0
  2  1  2  0
  3  2  2  0
  5  4  2  0
  6  5  2  0
  7  8  2  0
  8  9  1  0
  9 12  2  0
 11 10  2  0
 10  7  1  0
 11 12  1  0
 12 13  1  0
 13 14  2  0
 14 15  1  0
 15 16  2  0
 16 11  1  0
 17 18  1  0
 18 19  1  0
 19 20  1  0
 20  5  1  0
  5 17  1  0
 15 17  1  0
 19 21  2  0
 16 22  1  0
 14 23  1  0
 24 25  2  0
 25 26  1  0
 26 27  1  0
 27 28  1  0
 28 24  1  0
  7 24  1  0
 27  2  1  0
  2 29  1  0
 29 30  1  0
 30 31  1  0
 31 32  1  0
 31 33  1  0
  8 34  1  0
  9 35  1  0
 10 36  1  0
 13 37  1  0
 18 38  1  0
 18 39  1  0
 20 40  1  0
 23 41  1  0
 25 42  1  0
 26 43  1  0
 26 44  1  0
 28 45  1  0
 28 46  1  0
 29 47  1  0
 29 48  1  0
 30 49  1  0
 30 50  1  0
 31 51  1  0
 32 52  1  0
 32 53  1  0
 32 54  1  0
 33 55  1  0
 33 56  1  0
 33 57  1  0
M  END
> <Name>
Molecule

> <Clean Energy>
26.8138

> <From>
www.bindingDB.org

> <BindingDB Reactant_set_id>
51435745

> <Ligand InChI>
InChI=1S/C21H24FN3O6S2/c1-13(2)6-8-32(28,29)24-7-5-16(11-24)14-3-4-15-10-18(26)21(20(22)17(15)9-14)25-12-19(27)23-33(25,30)31/h3-5,9-10,13,26H,6-8,11-12H2,1-2H3,(H,23,27)

> <Ligand InChI Key>
UUCICFGUQUGUBQ-UHFFFAOYSA-N

> <BindingDB MonomerID>
50580003

> <BindingDB Ligand Name>
CHEMBL5080612

> <Target Name>
Tyrosine-protein phosphatase non-receptor type 1

> <Target Source Organism According to Curator or DataSource>
Homo sapiens

> <IC50 (nM)>
<1.000000

> <Curation/DataSource>
ChEMBL

> <Article DOI>
10.1021/acsmedchemlett.1c00678

> <BindingDB Entry DOI>
10.7270/Q2SB49MH

> <PMID>
35059117

> <Authors>
Abdel-Magid, AF

> <Institution>
Therachem Research Medilab, LLC

> <Link to Ligand in BindingDB>
http://www.bindingdb.org/bind/chemsearch/marvin/MolStructure.jsp?monomerid=50580003

> <Link to Ligand-Target Pair in BindingDB>
http://www.bindingdb.org/jsp/dbsearch/PrimarySearch_ki.jsp?energyterm=kJ/mole&tag=pol&polymerid=2622&target=Tyrosine-protein+phosphatase+non-receptor+type+1&column=ki&startPg=0&Increment=50&submit=Sea
rch
http://www.bindingdb.org/jsp/dbsearch/PrimarySearch_ki.jsp?energyterm=kJ/mole&tag=r21&monomerid=50580003&enzyme=Tyrosine-protein+phosphatase+non-receptor+type+1&column=ki&startPg=0&Increment=50&submit
=Search

> <PubChem CID of Ligand>
155485130

> <PubChem SID of Ligand>
476025008

> <Number of Protein Chains in Target (bigger than 1 implies a multichain complex)>
1

> <BindingDB Target Chain Sequence>
MEMEKEFEQIDKSGSWAAIYQDIRHEASDFPCRVAKLPKNKNRNRYRDVSPFDHSRIKLHQEDNDYINASLIKMEEAQRSYILTQGPLPNTCGHFWEMVWEQKSRGVVMLNRVMEKGSLKCAQYWPQKEEKEMIFEDTNLKLTLISEDIKSYYTVRQLELENLTTQETREILHFHYTTWPDFGVPESPASFLNFLFKVRE
SGSLSPEHGPVVVHCSAGIGRSGTFCLADTCLLLMDKRKDPSSVDIKKVLLEMRKFRMGLIQTADQLRFSYLAVIEGAKFIMGDSSVQDQWKELSHEDLEPPPEHIPPPPRPPKRILEPHNGKCREFFPNHQWVKEETQEDKDCPIKEEKGSPLNAAPYGIESMSQDTEVRSRVVGGSLRGAQAASPAKGEPSLPEKDED
HALSYWKPFLVNMCVATVLTAGAYLCYRFLFNSNT

> <PDB ID(s) of Target Chain>
1BZJ,1G7G,1GFY,1JF7,1KAK,1KAV,1LQF,1NL9,1NNY,1NO6,1NZ7,1OEM,1OEO,1OES,1OET,1OEU,1OEV,1ONY,1ONZ,1PH0,1PXH,1PYN,1Q1M,1Q6J,1Q6M,1Q6N,1Q6P,1Q6S,1Q6T,1QXK,1SUG,1T48,1T49,1T4J,1WAX,1XBO,2AZR,2B07,2BGD,2BGE,
2CM2,2CM3,2CM7,2CM8,2CMA,2CMB,2CMC,2CNE,2CNF,2CNG,2CNH,2CNI,2F6T,2F6V,2F6W,2F6Y,2F6Z,2F70,2F71,2FJN,2H4G,2H4K,2HB1,2HNP,2HNQ,2QBP,2QBQ,2QBR,2QBS,2VEU,2VEV,2VEW,2VEX,2VEY,2ZMM,2ZN7,3A5J,3CWE,3D9C,3EAX,
3EB1,3EU0,3I7Z,3I80,3SME,4BJO,4I8N,4QBW,4Y14,5K9V,5K9W,5KA0,5KA1,5T19,6B90,6NTP,6W30,7KEY,7KLX,7LFO,7MN9,7MNA,8DU7,8G65,8G67,8G68,8G69,8G6A,8SKL

> <UniProt (SwissProt) Recommended Name of Target Chain>
Tyrosine-protein phosphatase non-receptor type 1

> <UniProt (SwissProt) Entry Name of Target Chain>
PTN1_HUMAN

> <UniProt (SwissProt) Primary ID of Target Chain>
P18031

> <UniProt (SwissProt) Secondary ID(s) of Target Chain>
Q5TGD8 Q9BQV9 Q9NQQ4

$$$$
Molecule
  SciTegic10242319433D

 48 51  0  0  0  0            999 V2000
   31.9989  -19.5674    0.9899 O   0  0
   32.4623  -18.4283    0.1012 S   0  0
   32.2089  -18.7869   -1.3503 O   0  0
   43.3353  -16.1908    1.2416 O   0  0
   43.9845  -16.7889    0.0076 S   0  0
   43.5048  -16.1217   -1.2674 O   0  0
   37.6214  -19.3132   -0.0762 C   0  0
   37.6366  -20.6397    0.0191 C   0  0
   38.9056  -21.3502    0.0655 C   0  0
   38.8976  -18.5672   -0.1222 C   0  0
   40.0554  -19.2349   -0.0728 C   0  0
   40.0499  -20.6739    0.0185 C   0  0
   41.2979  -21.3794    0.0553 C   0  0
   42.4587  -20.7299    0.0253 C   0  0
   42.5095  -19.1983   -0.0439 C   0  0
   41.3405  -18.5185   -0.0941 C   0  0
   43.8080  -18.4823   -0.0474 N   0  0
   45.1119  -19.1577   -0.0075 C   0  0
   46.1520  -18.0406    0.1025 C   0  0
   45.6495  -16.7437    0.1211 N   0  0
   47.3633  -18.2778    0.1755 O   0  0
   41.3062  -17.1875   -0.1579 F   0  0
   43.6081  -21.5142    0.0637 O   0  0
   36.3284  -18.6178   -0.1382 C   0  0
   36.1861  -17.3132   -0.3272 C   0  0
   34.7161  -16.9912   -0.3842 C   0  0
   34.1675  -18.1587    0.3429 N   0  0
   35.0100  -19.3169   -0.0368 C   0  0
   31.5400  -16.9274    0.5141 C   0  0
   30.0368  -17.1713    0.2815 C   0  0
   36.6992  -21.1942    0.0624 H   0  0
   38.9184  -22.4377    0.1388 H   0  0
   38.8946  -17.4797   -0.1961 H   0  0
   41.2954  -22.4681    0.1088 H   0  0
   45.1713  -19.8189    0.8570 H   0  0
   45.2690  -19.7350   -0.9186 H   0  0
   46.2392  -15.8541    0.1964 H   0  0
   43.6176  -22.0789    0.9489 H   0  0
   36.9985  -16.5931   -0.4251 H   0  0
   34.4874  -16.0545    0.1241 H   0  0
   34.3516  -16.9465   -1.4105 H   0  0
   35.0145  -20.0895    0.7321 H   0  0
   34.7032  -19.7520   -0.9880 H   0  0
   31.7095  -16.6726    1.5603 H   0  0
   31.8777  -16.1072   -0.1195 H   0  0
   29.4790  -16.2683    0.5296 H   0  0
   29.6991  -17.9918    0.9146 H   0  0
   29.8672  -17.4266   -0.7646 H   0  0
  2  1  2  0
  3  2  2  0
  5  4  2  0
  6  5  2  0
  7  8  2  0
  8  9  1  0
  9 12  2  0
 11 10  2  0
 10  7  1  0
 11 12  1  0
 12 13  1  0
 13 14  2  0
 14 15  1  0
 15 16  2  0
 16 11  1  0
 17 18  1  0
 18 19  1  0
 19 20  1  0
 20  5  1  0
  5 17  1  0
 15 17  1  0
 19 21  2  0
 16 22  1  0
 14 23  1  0
 24 25  2  0
 25 26  1  0
 26 27  1  0
 27 28  1  0
 28 24  1  0
  7 24  1  0
 27  2  1  0
  2 29  1  0
 29 30  1  0
  8 31  1  0
  9 32  1  0
 10 33  1  0
 13 34  1  0
 18 35  1  0
 18 36  1  0
 20 37  1  0
 23 38  1  0
 25 39  1  0
 26 40  1  0
 26 41  1  0
 28 42  1  0
 28 43  1  0
 29 44  1  0
 29 45  1  0
 30 46  1  0
 30 47  1  0
 30 48  1  0
M  END
> <Name>
Molecule

> <Clean Energy>
26.8022

> <From>
www.bindingDB.org

> <BindingDB Reactant_set_id>
51435744

> <Ligand InChI>
InChI=1S/C18H18FN3O6S2/c1-2-29(25,26)21-6-5-13(9-21)11-3-4-12-8-15(23)18(17(19)14(12)7-11)22-10-16(24)20-30(22,27)28/h3-5,7-8,23H,2,6,9-10H2,1H3,(H,20,24)

> <Ligand InChI Key>
WKKUZEVZBNXLFJ-UHFFFAOYSA-N

> <BindingDB MonomerID>
50580002

> <BindingDB Ligand Name>
CHEMBL5084380

> <Target Name>
Tyrosine-protein phosphatase non-receptor type 1

> <Target Source Organism According to Curator or DataSource>
Homo sapiens

> <IC50 (nM)>
<1.000000

> <Curation/DataSource>
ChEMBL

> <Article DOI>
10.1021/acsmedchemlett.1c00678

> <BindingDB Entry DOI>
10.7270/Q2SB49MH

> <PMID>
35059117

> <Authors>
Abdel-Magid, AF

> <Institution>
Therachem Research Medilab, LLC

> <Link to Ligand in BindingDB>
http://www.bindingdb.org/bind/chemsearch/marvin/MolStructure.jsp?monomerid=50580002

> <Link to Ligand-Target Pair in BindingDB>
http://www.bindingdb.org/jsp/dbsearch/PrimarySearch_ki.jsp?energyterm=kJ/mole&tag=pol&polymerid=2622&target=Tyrosine-protein+phosphatase+non-receptor+type+1&column=ki&startPg=0&Increment=50&submit=Sea
rch
http://www.bindingdb.org/jsp/dbsearch/PrimarySearch_ki.jsp?energyterm=kJ/mole&tag=r21&monomerid=50580002&enzyme=Tyrosine-protein+phosphatase+non-receptor+type+1&column=ki&startPg=0&Increment=50&submit
=Search

> <PubChem CID of Ligand>
155485129

> <PubChem SID of Ligand>
476025007

> <Number of Protein Chains in Target (bigger than 1 implies a multichain complex)>
1

> <BindingDB Target Chain Sequence>
MEMEKEFEQIDKSGSWAAIYQDIRHEASDFPCRVAKLPKNKNRNRYRDVSPFDHSRIKLHQEDNDYINASLIKMEEAQRSYILTQGPLPNTCGHFWEMVWEQKSRGVVMLNRVMEKGSLKCAQYWPQKEEKEMIFEDTNLKLTLISEDIKSYYTVRQLELENLTTQETREILHFHYTTWPDFGVPESPASFLNFLFKVRE
SGSLSPEHGPVVVHCSAGIGRSGTFCLADTCLLLMDKRKDPSSVDIKKVLLEMRKFRMGLIQTADQLRFSYLAVIEGAKFIMGDSSVQDQWKELSHEDLEPPPEHIPPPPRPPKRILEPHNGKCREFFPNHQWVKEETQEDKDCPIKEEKGSPLNAAPYGIESMSQDTEVRSRVVGGSLRGAQAASPAKGEPSLPEKDED
HALSYWKPFLVNMCVATVLTAGAYLCYRFLFNSNT

> <PDB ID(s) of Target Chain>
1BZJ,1G7G,1GFY,1JF7,1KAK,1KAV,1LQF,1NL9,1NNY,1NO6,1NZ7,1OEM,1OEO,1OES,1OET,1OEU,1OEV,1ONY,1ONZ,1PH0,1PXH,1PYN,1Q1M,1Q6J,1Q6M,1Q6N,1Q6P,1Q6S,1Q6T,1QXK,1SUG,1T48,1T49,1T4J,1WAX,1XBO,2AZR,2B07,2BGD,2BGE,
2CM2,2CM3,2CM7,2CM8,2CMA,2CMB,2CMC,2CNE,2CNF,2CNG,2CNH,2CNI,2F6T,2F6V,2F6W,2F6Y,2F6Z,2F70,2F71,2FJN,2H4G,2H4K,2HB1,2HNP,2HNQ,2QBP,2QBQ,2QBR,2QBS,2VEU,2VEV,2VEW,2VEX,2VEY,2ZMM,2ZN7,3A5J,3CWE,3D9C,3EAX,
3EB1,3EU0,3I7Z,3I80,3SME,4BJO,4I8N,4QBW,4Y14,5K9V,5K9W,5KA0,5KA1,5T19,6B90,6NTP,6W30,7KEY,7KLX,7LFO,7MN9,7MNA,8DU7,8G65,8G67,8G68,8G69,8G6A,8SKL

> <UniProt (SwissProt) Recommended Name of Target Chain>
Tyrosine-protein phosphatase non-receptor type 1

> <UniProt (SwissProt) Entry Name of Target Chain>
PTN1_HUMAN

> <UniProt (SwissProt) Primary ID of Target Chain>
P18031

> <UniProt (SwissProt) Secondary ID(s) of Target Chain>
Q5TGD8 Q9BQV9 Q9NQQ4

$$$$
Molecule
  SciTegic10242319433D

125131  0  0  0  0            999 V2000
   19.8466  -13.6957   -0.1912 C   0  0  2  0  0  0
   20.8983  -14.6147   -0.8955 C   0  0
   21.2166  -15.7265    0.0495 C   0  0
   22.0884  -15.0417    1.1603 C   0  0
   21.6306  -13.5385    1.3527 C   0  0
   20.2092  -13.5293    1.2155 O   0  0
    6.6574  -12.5139   -0.3782 C   0  0  1  0  0  0
    7.0464  -13.8989    0.2564 C   0  0
    8.4067  -14.4199   -0.3192 C   0  0
    7.8180  -11.7430    0.2611 O   0  0
   -3.9133  -11.3181    0.0911 C   0  0
   -3.8125  -12.8429    0.3950 C   0  0  1  0  0  0
   -2.3243  -13.0845    0.5357 O   0  0
   -1.3154  -12.2576   -0.0930 C   0  0  1  0  0  0
   -1.4881  -10.8490    0.4344 C   0  0
   -2.9013  -10.4348    0.1330 C   0  0
   -6.2435  -12.9147   -0.4100 C   0  0  2  0  0  0
   -6.2536  -14.2844    0.2521 C   0  0
   -5.3672  -14.8538   -0.6952 C   0  0
   -3.9740  -14.3607   -0.2332 C   0  0  1  0  0  0
   -4.6853  -12.6617   -0.7800 O   0  0
   -7.0732  -11.7966    0.4431 C   0  0
   -8.6404  -12.0791    0.8583 C   0  0  1  0  0  0
   -3.1205  -14.5160   -1.3663 O   0  0
   -3.1900   -8.9887   -0.1453 C   0  0
    0.1334  -12.8945    0.2943 C   0  0  2  0  0  0
    0.2485  -12.9489    1.8307 C   0  0
    1.4497  -12.1943   -0.2493 C   0  0
    2.6577  -12.6656    0.1711 C   0  0
    4.0956  -12.1128   -0.2437 C   0  0  2  0  0  0
    5.1957  -13.0386   -0.0585 O   0  0
    6.0346  -11.1452    0.3116 C   0  0
    4.5852  -11.2207    0.7516 C   0  0
    9.1987  -12.1369   -0.1913 C   0  0  2  0  0  0
    9.5224  -13.5330    0.1964 C   0  0  2  0  0  0
   10.8243  -13.9568   -0.4216 O   0  0
   12.0393  -13.0828   -0.3138 C   0  0  1  0  0  0
   11.6999  -11.7223    0.3330 C   0  0
   10.2688  -11.2893    0.5674 C   0  0  1  0  0  0
   10.1277   -9.8942    0.3017 O   0  0
   12.6461  -10.7891    0.5081 C   0  0
   13.3026  -13.9828    0.2189 C   0  0  1  0  0  0
   13.3923  -15.0532   -0.7243 O   0  0
   14.7175  -13.2211    0.2474 C   0  0
   15.9997  -14.1575    0.0250 C   0  0  1  0  0  0
   17.3984  -13.3781    0.1848 C   0  0  1  0  0  0
   16.0267  -15.3668    0.9857 C   0  0
   18.4905  -14.2824   -0.2643 O   0  0
   19.8854  -12.3644   -0.9738 C   0  0
   18.8229  -11.4017   -0.4352 C   0  0
   17.4471  -12.0568   -0.6570 C   0  0  1  0  0  0
   17.2440  -12.3064   -2.1785 C   0  0
   -9.5207  -12.5392   -0.2981 C   0  0
   -8.7760  -13.1500    1.9763 C   0  0
   -9.2088  -10.8900    1.4145 O   0  0
  -10.8432  -12.1012   -0.3664 O   0  0
   -9.1499  -13.4463   -1.0511 O   0  0
   21.8004  -14.0456   -1.1198 H   0  0
   20.4829  -15.0173   -1.8193 H   0  0
   20.3052  -16.1456    0.4758 H   0  0
   21.7784  -16.5136   -0.4536 H   0  0
   21.9649  -15.5802    2.0999 H   0  0
   23.1367  -15.0650    0.8627 H   0  0
   21.9160  -13.1813    2.3422 H   0  0
   22.0868  -12.9053    0.5917 H   0  0
    6.2642  -14.6248    0.0338 H   0  0
    7.1380  -13.7826    1.3363 H   0  0
    8.5739  -15.4466    0.0066 H   0  0
    8.3824  -14.3832   -1.4083 H   0  0
   -4.8957  -10.9320   -0.1808 H   0  0
   -1.4482  -12.2678   -1.1748 H   0  0
   -1.3139  -10.8286    1.5102 H   0  0
   -0.7878  -10.1760   -0.0603 H   0  0
   -6.7689  -13.0288   -1.3581 H   0  0
   -5.8517  -14.2750    1.2653 H   0  0
   -7.2378  -14.7529    0.2554 H   0  0
   -5.4214  -15.9422   -0.6735 H   0  0
   -5.5918  -14.4982   -1.7008 H   0  0
   -3.6246  -15.0592    0.5272 H   0  0
   -6.5249  -11.6379    1.3717 H   0  0
   -7.0638  -10.8797   -0.1463 H   0  0
   -3.0950  -15.5267   -1.6500 H   0  0
   -4.2544   -8.8616   -0.3428 H   0  0
   -2.6184   -8.6644   -1.0149 H   0  0
   -2.9073   -8.3883    0.7194 H   0  0
    0.1415  -13.9229   -0.0670 H   0  0
    1.2132  -13.3731    2.1086 H   0  0
   -0.5509  -13.5708    2.2337 H   0  0
    0.1645  -11.9412    2.2377 H   0  0
    1.3893  -11.3557   -0.9429 H   0  0
    2.6394  -13.5078    0.8628 H   0  0
    4.0954  -11.6642   -1.2371 H   0  0
    6.6373  -10.9107    1.1890 H   0  0
    6.1204  -10.3374   -0.4152 H   0  0
    4.4841  -11.6334    1.7554 H   0  0
    4.0935  -10.2489    0.7065 H   0  0
    9.3002  -12.0057   -1.2686 H   0  0
    9.5853  -13.6106    1.2818 H   0  0
   12.2931  -12.8392   -1.3454 H   0  0
   10.0741  -11.4239    1.6314 H   0  0
   10.2400   -9.7203   -0.7277 H   0  0
   13.6707  -10.9859    0.1924 H   0  0
   12.3910   -9.8335    0.9661 H   0  0
   13.0793  -14.3818    1.2084 H   0  0
   12.4938  -15.5966   -0.7243 H   0  0
   14.7103  -12.4665   -0.5392 H   0  0
   14.8193  -12.7345    1.2175 H   0  0
   15.9525  -14.5455   -0.9925 H   0  0
   17.5501  -13.1342    1.2363 H   0  0
   16.9159  -15.9663    0.7910 H   0  0
   15.1367  -15.9762    0.8287 H   0  0
   16.0467  -15.0123    2.0163 H   0  0
   20.8705  -11.9110   -0.8637 H   0  0
   19.6913  -12.5611   -2.0282 H   0  0
   18.9844  -11.2273    0.6285 H   0  0
   18.8740  -10.4540   -0.9712 H   0  0
   16.6701  -11.3802   -0.3012 H   0  0
   17.2873  -11.3568   -2.7119 H   0  0
   16.2724  -12.7717   -2.3444 H   0  0
   18.0299  -12.9657   -2.5471 H   0  0
   -9.8297  -13.2982    2.2124 H   0  0
   -8.2482  -12.8132    2.8686 H   0  0
   -8.3453  -14.0907    1.6332 H   0  0
   -8.6664  -10.6083    2.2683 H   0  0
  -11.3601  -12.4120    0.4931 H   0  0
 12 13  1  0
 14 13  1  0
 14 15  1  0
  7 31  1  0
  7 32  1  0
 32 33  1  0
 30 33  1  0
 34 35  1  0
 15 16  1  0
 17 18  1  0
  1  6  1  0
  2  3  1  0
  7 10  1  0
  8  9  1  0
 34 39  1  0
 35 36  1  0
 37 36  1  0
 37 38  1  0
 39 38  1  0
 35  9  1  0
 17 21  1  0
 18 19  1  0
 39 40  1  0
 20 19  1  0
 38 41  2  0
 12 20  1  0
 37 42  1  0
 12 21  1  0
 42 43  1  0
 34 10  1  0
 42 44  1  0
 17 22  1  0
 45 44  1  0
 12 11  1  0
 46 45  1  0
 23 22  1  0
 45 47  1  0
 46 48  1  0
  3  4  1  0
 20 24  1  0
  4  5  1  0
 16 25  1  0
 46 51  1  0
  1 48  1  0
  1 49  1  0
 49 50  1  0
 51 50  1  0
  5  6  1  0
 51 52  1  0
 14 26  1  0
  7  8  1  0
 26 27  1  0
 23 53  1  0
 26 28  1  0
 23 54  1  0
  1  2  1  0
 23 55  1  0
 28 29  2  0
 11 16  2  0
 53 56  1  0
 53 57  2  0
 30 29  1  0
 30 31  1  0
  2 58  1  0
  2 59  1  0
  3 60  1  0
  3 61  1  0
  4 62  1  0
  4 63  1  0
  5 64  1  0
  5 65  1  0
  8 66  1  0
  8 67  1  0
  9 68  1  0
  9 69  1  0
 11 70  1  0
 14 71  1  0
 15 72  1  0
 15 73  1  0
 17 74  1  0
 18 75  1  0
 18 76  1  0
 19 77  1  0
 19 78  1  0
 20 79  1  0
 22 80  1  0
 22 81  1  0
 24 82  1  0
 25 83  1  0
 25 84  1  0
 25 85  1  0
 26 86  1  0
 27 87  1  0
 27 88  1  0
 27 89  1  0
 28 90  1  0
 29 91  1  0
 30 92  1  0
 32 93  1  0
 32 94  1  0
 33 95  1  0
 33 96  1  0
 34 97  1  0
 35 98  1  0
 37 99  1  0
 39100  1  0
 40101  1  0
 41102  1  0
 41103  1  0
 42104  1  0
 43105  1  0
 44106  1  0
 44107  1  0
 45108  1  0
 46109  1  0
 47110  1  0
 47111  1  0
 47112  1  0
 49113  1  0
 49114  1  0
 50115  1  0
 50116  1  0
 51117  1  0
 52118  1  0
 52119  1  0
 52120  1  0
 54121  1  0
 54122  1  0
 54123  1  0
 55124  1  0
 56125  1  0
M  END
> <Name>
Molecule

> <Clean Energy>
393.749

> <From>
www.bindingDB.org

> <BindingDB Reactant_set_id>
50782658

> <Ligand InChI>
InChI=1S/C44H68O13/c1-25-21-34(55-44(23-25)35(46)12-11-31(54-44)24-41(6,50)40(48)49)26(2)9-10-30-14-18-43(53-30)19-15-33-39(57-43)36(47)29(5)38(52-33)32(45)22-28(4)37-27(3)13-17-42(56-37)16-7-8-20-51-
42/h9-10,23,26-28,30-39,45-47,50H,5,7-8,11-22,24H2,1-4,6H3,(H,48,49)/b10-9+/t26-,27-,28+,30+,31+,32+,33-,34+,35-,36-,37+,38+,39-,41-,42+,43-,44-/m1/s1

> <Ligand InChI Key>
QNDVLZJODHBUFM-WFXQOWMNSA-N

> <BindingDB MonomerID>
50110676

> <BindingDB Ligand Name>
CHEMBL280487::okadaic acid

> <Target Name>
Tyrosine-protein phosphatase non-receptor type 1

> <Target Source Organism According to Curator or DataSource>
Homo sapiens

> <IC50 (nM)>
1.2

> <Curation/DataSource>
ChEMBL

> <Article DOI>
10.1021/jm960873x

> <BindingDB Entry DOI>
10.7270/Q25Q4WS0

> <PMID>
9379439

> <Authors>
Gupta, V; Ogawa, AK; Du, X; Houk, KN; Armstrong, RW

> <Institution>
University of California

> <Link to Ligand in BindingDB>
http://www.bindingdb.org/bind/chemsearch/marvin/MolStructure.jsp?monomerid=50110676

> <Link to Ligand-Target Pair in BindingDB>
http://www.bindingdb.org/jsp/dbsearch/PrimarySearch_ki.jsp?energyterm=kJ/mole&tag=pol&polymerid=2622&target=Tyrosine-protein+phosphatase+non-receptor+type+1&column=ki&startPg=0&Increment=50&submit=Sea
rch
http://www.bindingdb.org/jsp/dbsearch/PrimarySearch_ki.jsp?energyterm=kJ/mole&tag=r21&monomerid=50110676&enzyme=Tyrosine-protein+phosphatase+non-receptor+type+1&column=ki&startPg=0&Increment=50&submit
=Search

> <Ligand HET ID in PDB>
OKA

> <PDB ID(s) for Ligand-Target Complex>
1JK7,1U32,4WRI,2IE4

> <PubChem CID of Ligand>
446512

> <PubChem SID of Ligand>
104005410

> <ChEBI ID of Ligand>
44658

> <ChEMBL ID of Ligand>
CHEMBL280487

> <IUPHAR_GRAC ID of Ligand>
5349

> <KEGG ID of Ligand>
C01945

> <ZINC ID of Ligand>
ZINC85601542

> <Number of Protein Chains in Target (bigger than 1 implies a multichain complex)>
1

> <BindingDB Target Chain Sequence>
MEMEKEFEQIDKSGSWAAIYQDIRHEASDFPCRVAKLPKNKNRNRYRDVSPFDHSRIKLHQEDNDYINASLIKMEEAQRSYILTQGPLPNTCGHFWEMVWEQKSRGVVMLNRVMEKGSLKCAQYWPQKEEKEMIFEDTNLKLTLISEDIKSYYTVRQLELENLTTQETREILHFHYTTWPDFGVPESPASFLNFLFKVRE
SGSLSPEHGPVVVHCSAGIGRSGTFCLADTCLLLMDKRKDPSSVDIKKVLLEMRKFRMGLIQTADQLRFSYLAVIEGAKFIMGDSSVQDQWKELSHEDLEPPPEHIPPPPRPPKRILEPHNGKCREFFPNHQWVKEETQEDKDCPIKEEKGSPLNAAPYGIESMSQDTEVRSRVVGGSLRGAQAASPAKGEPSLPEKDED
HALSYWKPFLVNMCVATVLTAGAYLCYRFLFNSNT

> <PDB ID(s) of Target Chain>
1BZJ,1G7G,1GFY,1JF7,1KAK,1KAV,1LQF,1NL9,1NNY,1NO6,1NZ7,1OEM,1OEO,1OES,1OET,1OEU,1OEV,1ONY,1ONZ,1PH0,1PXH,1PYN,1Q1M,1Q6J,1Q6M,1Q6N,1Q6P,1Q6S,1Q6T,1QXK,1SUG,1T48,1T49,1T4J,1WAX,1XBO,2AZR,2B07,2BGD,2BGE,
2CM2,2CM3,2CM7,2CM8,2CMA,2CMB,2CMC,2CNE,2CNF,2CNG,2CNH,2CNI,2F6T,2F6V,2F6W,2F6Y,2F6Z,2F70,2F71,2FJN,2H4G,2H4K,2HB1,2HNP,2HNQ,2QBP,2QBQ,2QBR,2QBS,2VEU,2VEV,2VEW,2VEX,2VEY,2ZMM,2ZN7,3A5J,3CWE,3D9C,3EAX,
3EB1,3EU0,3I7Z,3I80,3SME,4BJO,4I8N,4QBW,4Y14,5K9V,5K9W,5KA0,5KA1,5T19,6B90,6NTP,6W30,7KEY,7KLX,7LFO,7MN9,7MNA,8DU7,8G65,8G67,8G68,8G69,8G6A,8SKL

> <UniProt (SwissProt) Recommended Name of Target Chain>
Tyrosine-protein phosphatase non-receptor type 1

> <UniProt (SwissProt) Entry Name of Target Chain>
PTN1_HUMAN

> <UniProt (SwissProt) Primary ID of Target Chain>
P18031

> <UniProt (SwissProt) Secondary ID(s) of Target Chain>
Q5TGD8 Q9BQV9 Q9NQQ4

$$$$
Molecule
  SciTegic10242319433D

154156  0  0  0  0            999 V2000
   16.0775  -11.8385   -0.3871 C   0  0  1  0  0  0
   14.8706  -11.0070    0.4931 C   0  0
   13.4025  -11.6144    0.2276 C   0  0  2  0  0  0
   15.0676  -12.9181   -1.0975 O   0  0
   13.8550  -13.0827   -0.0917 C   0  0  2  0  0  0
   15.6839   -5.0154   -0.0065 N   0  0
   16.8321  -10.7325   -0.9526 O   0  0
    7.4763   -3.3227   -0.1555 C   0  0  2  0  0  0
   15.6105   -3.7160   -0.0083 C   0  0
    8.8519   -2.5125    0.0073 C   0  0
   17.3387  -12.8630   -0.1988 C   0  0
   11.5298   -9.5104   -0.1384 P   0  0
    6.0576   -2.5514    0.1673 C   0  0  2  0  0  0
    4.0339  -14.1143    0.0192 C   0  0
   12.5013  -10.7946   -0.8293 O   0  0
   16.8954   -3.1834   -0.0194 O   0  0
    4.6180   -3.4389   -0.1658 C   0  0  1  0  0  0
    2.7880  -13.4675   -0.0210 C   0  0
   18.7281  -12.3842    0.3470 C   0  0  2  0  0  0
    8.4015  -13.4738   -0.0867 C   0  0  2  0  0  0
   18.0134  -10.2092   -0.0085 C   0  0  1  0  0  0
   19.1969  -11.0709   -0.2790 C   0  0  1  0  0  0
   12.5562  -14.2466   -0.2753 C   0  0  2  0  0  0
   17.1233   -5.3217   -0.0339 C   0  0
   11.1175  -13.4906    0.0048 C   0  0
    6.9366  -14.3051    0.1615 C   0  0  1  0  0  0
   10.0923   -3.1662   -0.0654 N   0  0
    9.7373  -14.3738    0.1336 C   0  0  2  0  0  0
   -5.2998  -10.7360    0.0013 N   0  0
    5.5355  -13.3872   -0.1018 C   0  0  2  0  0  0
    1.3960  -14.2183    0.0338 C   0  0
   17.7997   -4.1903   -0.0450 C   0  0
   -5.1765  -11.8833    0.0002 C   0  0
   14.2998   -2.7428    0.0476 C   0  0  2  0  0  0
    4.3989   -4.8437    0.5749 N   0  0
   -1.2630  -14.1454    0.0218 C   0  0
   12.1591   -8.9027    0.9263 O   0  0
    8.7976   -1.2867    0.1639 O   0  0
    0.2091  -13.5136    0.0128 C   0  0
   17.8779   -6.6147   -0.1213 C   0  0
   17.4300   -7.8549   -0.0743 C   0  0
   -5.0179  -13.3307   -0.0022 C   0  0
   -3.8599  -14.0372    0.0007 C   0  0
   -2.4198  -13.4023    0.0044 C   0  0
   12.8098   -3.4317   -0.2415 C   0  0
   11.4727   -2.4621    0.0641 C   0  0  1  0  0  0
   10.2062  -10.0521    0.3745 O   0  0
   11.1337   -8.3463   -1.1062 O   0  0
    7.6041   -4.4634    0.6721 O   0  0
    6.0086   -1.3642   -0.6545 O   0  0
   15.0997  -10.0928    1.6868 C   0  0
   14.5450   -9.8627   -0.5028 C   0  0
   19.6445  -13.4499    0.0140 O   0  0
    6.9212  -15.4222   -0.7393 O   0  0
    9.7224  -15.4303   -0.8122 O   0  0
   18.4761   -8.8499   -0.3274 C   0  0
   12.6767  -15.4847    0.5622 O   0  0
    3.3461   -2.4794    0.1926 C   0  0
    8.6138  -12.3137    0.8790 C   0  0
    2.6307  -11.9581   -0.1801 C   0  0
   20.5350  -10.4918    0.3790 C   0  0
    2.0521   -3.0801   -0.2346 O   0  0
    1.3679  -15.7126    0.0594 C   0  0
    5.5348  -12.1831    0.8789 C   0  0
    3.1172   -5.4954    0.2630 C   0  0
    5.3116   -5.9121    0.1617 C   0  0
   14.6386   -1.4773   -0.8246 C   0  0
   -4.0086  -15.5410   -0.0020 C   0  0
   11.4242   -1.1991   -0.8386 C   0  0
   13.7440  -16.3665    0.1591 C   0  0
    0.8766   -2.3280    0.0959 C   0  0
   12.8705  -11.6288    1.1789 H   0  0
   14.3408  -13.3980    0.8317 H   0  0
    7.4270   -3.6740   -1.1862 H   0  0
   16.9975  -13.6439    0.4809 H   0  0
   17.5299  -13.2940   -1.1815 H   0  0
    6.0511   -2.2530    1.2156 H   0  0
    4.0212  -15.1973    0.1413 H   0  0
    4.5921   -3.6281   -1.2390 H   0  0
   18.6759  -12.2735    1.4301 H   0  0
    8.4105  -13.0836   -1.1044 H   0  0
   17.7230  -10.2776    1.0399 H   0  0
   19.3315  -11.1954   -1.3535 H   0  0
   12.5544  -14.5636   -1.3182 H   0  0
   11.2276  -12.9408    0.9395 H   0  0
   10.9663  -12.7883   -0.8149 H   0  0
    6.9190  -14.6820    1.1841 H   0  0
   10.0874   -4.2248   -0.2212 H   0  0
    9.6987  -14.8070    1.1331 H   0  0
    5.6093  -12.9766   -1.1088 H   0  0
   18.8844   -4.0852   -0.0702 H   0  0
   14.2545   -2.3803    1.0746 H   0  0
   -1.3531  -15.2314    0.0432 H   0  0
    0.2803  -12.4262   -0.0122 H   0  0
   18.9566   -6.5152   -0.2417 H   0  0
   16.3910   -8.1125    0.1313 H   0  0
   -5.9379  -13.9153   -0.0068 H   0  0
   -2.3350  -12.3157   -0.0076 H   0  0
   12.7763   -3.7230   -1.2913 H   0  0
   12.7269   -4.3196    0.3854 H   0  0
   11.5587   -2.1152    1.0938 H   0  0
    9.6751  -10.4887   -0.4192 H   0  0
   12.0025   -7.8856   -1.4743 H   0  0
    8.4246   -5.0366    0.3546 H   0  0
    6.8232   -0.7436   -0.4226 H   0  0
   14.1429   -9.7066    2.0382 H   0  0
   15.7398   -9.2616    1.3909 H   0  0
   15.5806  -10.6540    2.4879 H   0  0
   13.7704   -9.2225   -0.0808 H   0  0
   14.1922  -10.2876   -1.4426 H   0  0
   15.4432   -9.2729   -0.6857 H   0  0
   19.3311  -14.3390    0.4764 H   0  0
    6.9847  -15.0757   -1.7285 H   0  0
    8.8643  -16.0180   -0.6678 H   0  0
   18.7569   -8.8090   -1.3799 H   0  0
   19.3437   -8.6169    0.2899 H   0  0
    3.3200   -2.3190    1.2704 H   0  0
    3.4738   -1.5231   -0.3146 H   0  0
    7.7664  -11.6308    0.8191 H   0  0
    9.5276  -11.7820    0.6136 H   0  0
    8.6994  -12.6975    1.8956 H   0  0
    1.5715  -11.7009   -0.1827 H   0  0
    3.0830  -11.6422   -1.1202 H   0  0
    3.1250  -11.4514    0.6487 H   0  0
   20.8089   -9.5592   -0.1142 H   0  0
   21.3415  -11.2155    0.2603 H   0  0
   20.3677  -10.3056    1.4399 H   0  0
    0.3343  -16.0566    0.0965 H   0  0
    1.9015  -16.0715    0.9396 H   0  0
    1.8475  -16.1010   -0.8391 H   0  0
    6.4988  -11.6765    0.8336 H   0  0
    5.3600  -12.5405    1.8937 H   0  0
    4.7451  -11.4860    0.5986 H   0  0
    3.0476   -6.4391    0.8038 H   0  0
    3.0573   -5.6860   -0.8086 H   0  0
    2.2957   -4.8444    0.5622 H   0  0
    5.0839   -6.8209    0.7187 H   0  0
    6.3395   -5.6109    0.3636 H   0  0
    5.1916   -6.1008   -0.9051 H   0  0
   13.7898   -0.7936   -0.8187 H   0  0
   14.8481   -1.7867   -1.8486 H   0  0
   15.5128   -0.9741   -0.4114 H   0  0
   -3.0219  -16.0042    0.0006 H   0  0
   -4.5526  -15.8512   -0.8942 H   0  0
   -4.5586  -15.8538    0.8855 H   0  0
   12.3763   -0.6720   -0.7783 H   0  0
   10.6232   -0.5413   -0.5012 H   0  0
   11.2390   -1.4966   -1.8708 H   0  0
   13.7637  -17.2372    0.8145 H   0  0
   14.6961  -15.8400    0.2266 H   0  0
   13.5802  -16.6898   -0.8689 H   0  0
   -0.0065   -2.8574   -0.2618 H   0  0
    0.9275   -1.3470   -0.3765 H   0  0
    0.8139   -2.2073    1.1774 H   0  0
  1  2  1  0
  3  2  1  0
  1  4  1  0
  5  4  1  0
  6 24  1  0
  1  7  1  0
  8 10  1  0
  9  6  2  0
 10 27  1  0
  1 11  1  0
 12 15  1  0
 13  8  1  0
 30 14  1  0
  3 15  1  0
 16 32  1  0
 13 17  1  0
 18 14  2  0
 19 11  1  0
 20 28  1  0
 21  7  1  0
 22 19  1  0
 23  5  1  0
 24 40  1  0
 23 25  1  0
 20 26  1  0
 46 27  1  0
 28 25  1  0
 29 33  3  0
 26 30  1  0
 31 18  1  0
 32 24  2  0
 33 42  1  0
 34  9  1  0
 17 35  1  0
 36 39  1  0
 37 12  2  0
 38 10  2  0
 39 31  2  0
 40 41  2  0
 41 56  1  0
 42 43  2  0
 43 44  1  0
 44 36  2  0
 34 45  1  0
 46 45  1  0
 47 12  1  0
 48 12  1  0
  8 49  1  0
 13 50  1  0
  2 51  1  0
  2 52  1  0
 53 19  1  0
 26 54  1  0
 28 55  1  0
 56 21  1  0
 23 57  1  0
 17 58  1  0
 20 59  1  0
 60 18  1  0
 61 22  1  0
 62 58  1  0
 63 31  1  0
 30 64  1  0
 65 35  1  0
 66 35  1  0
 34 67  1  0
 68 43  1  0
 46 69  1  0
 70 57  1  0
 71 62  1  0
  3  5  1  0
 22 21  1  0
 16  9  1  0
  3 72  1  0
  5 73  1  0
  8 74  1  0
 11 75  1  0
 11 76  1  0
 13 77  1  0
 14 78  1  0
 17 79  1  0
 19 80  1  0
 20 81  1  0
 21 82  1  0
 22 83  1  0
 23 84  1  0
 25 85  1  0
 25 86  1  0
 26 87  1  0
 27 88  1  0
 28 89  1  0
 30 90  1  0
 32 91  1  0
 34 92  1  0
 36 93  1  0
 39 94  1  0
 40 95  1  0
 41 96  1  0
 42 97  1  0
 44 98  1  0
 45 99  1  0
 45100  1  0
 46101  1  0
 47102  1  0
 48103  1  0
 49104  1  0
 50105  1  0
 51106  1  0
 51107  1  0
 51108  1  0
 52109  1  0
 52110  1  0
 52111  1  0
 53112  1  0
 54113  1  0
 55114  1  0
 56115  1  0
 56116  1  0
 58117  1  0
 58118  1  0
 59119  1  0
 59120  1  0
 59121  1  0
 60122  1  0
 60123  1  0
 60124  1  0
 61125  1  0
 61126  1  0
 61127  1  0
 63128  1  0
 63129  1  0
 63130  1  0
 64131  1  0
 64132  1  0
 64133  1  0
 65134  1  0
 65135  1  0
 65136  1  0
 66137  1  0
 66138  1  0
 66139  1  0
 67140  1  0
 67141  1  0
 67142  1  0
 68143  1  0
 68144  1  0
 68145  1  0
 69146  1  0
 69147  1  0
 69148  1  0
 70149  1  0
 70150  1  0
 70151  1  0
 71152  1  0
 71153  1  0
 71154  1  0
M  END
> <Name>
Molecule

> <Clean Energy>
399.333

> <From>
www.bindingDB.org

> <BindingDB Reactant_set_id>
50782670

> <Ligand InChI>
InChI=1S/C51H83N4O15P/c1-29(21-22-52)17-15-18-30(2)31(3)23-32(4)43(58)36(8)39(56)25-42(66-14)46-47(70-71(62,63)64)50(9,10)51(69-46)26-40(57)35(7)41(68-51)20-16-19-37-27-67-49(54-37)33(5)24-34(6)53-48(
61)45(60)44(59)38(28-65-13)55(11)12/h15-19,21,23,27,32-36,38-47,56-60H,20,24-26,28H2,1-14H3,(H,53,61)(H2,62,63,64)/b17-15+,19-16+,29-21-,30-18+,31-23+/t32-,33+,34-,35?,36+,38+,39+,40?,41?,42+,43-,44+,
45+,46?,47+,51-/m1/s1

> <Ligand InChI Key>
MDHVPFKPZGGNLB-CVUGGBTCSA-N

> <BindingDB MonomerID>
50061069

> <BindingDB Ligand Name>
CHEMBL384277::Calyculin C

> <Target Name>
Tyrosine-protein phosphatase non-receptor type 1

> <Target Source Organism According to Curator or DataSource>
Homo sapiens

> <IC50 (nM)>
1.5

> <Curation/DataSource>
ChEMBL

> <Article DOI>
10.1021/jm960873x

> <BindingDB Entry DOI>
10.7270/Q25Q4WS0

> <PMID>
9379439

> <Authors>
Gupta, V; Ogawa, AK; Du, X; Houk, KN; Armstrong, RW

> <Institution>
University of California

> <Link to Ligand in BindingDB>
http://www.bindingdb.org/bind/chemsearch/marvin/MolStructure.jsp?monomerid=50061069

> <Link to Ligand-Target Pair in BindingDB>
http://www.bindingdb.org/jsp/dbsearch/PrimarySearch_ki.jsp?energyterm=kJ/mole&tag=pol&polymerid=2622&target=Tyrosine-protein+phosphatase+non-receptor+type+1&column=ki&startPg=0&Increment=50&submit=Sea
rch
http://www.bindingdb.org/jsp/dbsearch/PrimarySearch_ki.jsp?energyterm=kJ/mole&tag=r21&monomerid=50061069&enzyme=Tyrosine-protein+phosphatase+non-receptor+type+1&column=ki&startPg=0&Increment=50&submit
=Search

> <PubChem CID of Ligand>
44338868

> <PubChem SID of Ligand>
103956656

> <ChEMBL ID of Ligand>
CHEMBL384277

> <Number of Protein Chains in Target (bigger than 1 implies a multichain complex)>
1

> <BindingDB Target Chain Sequence>
MEMEKEFEQIDKSGSWAAIYQDIRHEASDFPCRVAKLPKNKNRNRYRDVSPFDHSRIKLHQEDNDYINASLIKMEEAQRSYILTQGPLPNTCGHFWEMVWEQKSRGVVMLNRVMEKGSLKCAQYWPQKEEKEMIFEDTNLKLTLISEDIKSYYTVRQLELENLTTQETREILHFHYTTWPDFGVPESPASFLNFLFKVRE
SGSLSPEHGPVVVHCSAGIGRSGTFCLADTCLLLMDKRKDPSSVDIKKVLLEMRKFRMGLIQTADQLRFSYLAVIEGAKFIMGDSSVQDQWKELSHEDLEPPPEHIPPPPRPPKRILEPHNGKCREFFPNHQWVKEETQEDKDCPIKEEKGSPLNAAPYGIESMSQDTEVRSRVVGGSLRGAQAASPAKGEPSLPEKDED
HALSYWKPFLVNMCVATVLTAGAYLCYRFLFNSNT

> <PDB ID(s) of Target Chain>
1BZJ,1G7G,1GFY,1JF7,1KAK,1KAV,1LQF,1NL9,1NNY,1NO6,1NZ7,1OEM,1OEO,1OES,1OET,1OEU,1OEV,1ONY,1ONZ,1PH0,1PXH,1PYN,1Q1M,1Q6J,1Q6M,1Q6N,1Q6P,1Q6S,1Q6T,1QXK,1SUG,1T48,1T49,1T4J,1WAX,1XBO,2AZR,2B07,2BGD,2BGE,
2CM2,2CM3,2CM7,2CM8,2CMA,2CMB,2CMC,2CNE,2CNF,2CNG,2CNH,2CNI,2F6T,2F6V,2F6W,2F6Y,2F6Z,2F70,2F71,2FJN,2H4G,2H4K,2HB1,2HNP,2HNQ,2QBP,2QBQ,2QBR,2QBS,2VEU,2VEV,2VEW,2VEX,2VEY,2ZMM,2ZN7,3A5J,3CWE,3D9C,3EAX,
3EB1,3EU0,3I7Z,3I80,3SME,4BJO,4I8N,4QBW,4Y14,5K9V,5K9W,5KA0,5KA1,5T19,6B90,6NTP,6W30,7KEY,7KLX,7LFO,7MN9,7MNA,8DU7,8G65,8G67,8G68,8G69,8G6A,8SKL

> <UniProt (SwissProt) Recommended Name of Target Chain>
Tyrosine-protein phosphatase non-receptor type 1

> <UniProt (SwissProt) Entry Name of Target Chain>
PTN1_HUMAN

> <UniProt (SwissProt) Primary ID of Target Chain>
P18031

> <UniProt (SwissProt) Secondary ID(s) of Target Chain>
Q5TGD8 Q9BQV9 Q9NQQ4

$$$$
Molecule
  SciTegic10242319433D

 56 57  0  0  0  0            999 V2000
    3.8638    0.1030    0.0006 C   0  0
    3.7767   -1.2257    0.0096 C   0  0
    4.9972   -2.0398    0.0138 C   0  0
    6.1936   -1.4515    0.0089 C   0  0
    6.2887    0.0113   -0.0013 C   0  0
    5.1783    0.7492   -0.0055 C   0  0
    7.5957    0.6780   -0.0093 C   0  0
    8.7387   -0.0104    0.0022 C   0  0
   10.0002    0.7426   -0.0125 C   0  0
   11.3035    0.0477    0.0043 C   0  0
    9.9613    1.9742   -0.0417 O   0  0
   11.3612   -1.2766    0.0471 C   0  0
   12.6624   -1.9554    0.0636 C   0  0
   13.7959   -1.2537    0.0398 C   0  0
   13.7385    0.2393   -0.0089 C   0  0
   12.5442    0.8401   -0.0279 C   0  0
   12.4866    2.2262   -0.0769 O   0  0
   14.9747    1.1488   -0.0530 C   0  0
   16.2896    0.4951    0.3018 C   0  0
   17.4417    1.0703   -0.0562 C   0  0
   18.7624    0.3746    0.3213 C   0  0
   20.0823    1.0184   -0.2411 C   0  0
   17.3983    2.3620   -0.8462 C   0  0
   20.4132    2.3718    0.3638 C   0  0
   21.5963    2.9466    0.1364 C   0  0
   21.8964    4.2937    0.7267 C   0  0
   22.6347    2.2549   -0.7075 C   0  0
   15.0052   -1.9454    0.0463 O   0  0
    2.9579    0.7092   -0.0021 H   0  0
    2.7993   -1.7082    0.0138 H   0  0
    4.9258   -3.1275    0.0210 H   0  0
    7.0998   -2.0573    0.0124 H   0  0
    5.2489    1.8368   -0.0136 H   0  0
    7.6340    1.7672   -0.0252 H   0  0
    8.7366   -1.1002    0.0220 H   0  0
   10.4416   -1.8613    0.0700 H   0  0
   12.7025   -3.0442    0.0957 H   0  0
   12.9680    2.6270    0.7658 H   0  0
   15.0614    1.5449   -1.0648 H   0  0
   14.8105    1.9688    0.6460 H   0  0
   16.2988   -0.4468    0.8503 H   0  0
   18.8343    0.3694    1.4089 H   0  0
   18.7125   -0.6508   -0.0450 H   0  0
   20.9097    0.3393   -0.0357 H   0  0
   19.9717    1.1419   -1.3184 H   0  0
   18.4149    2.6950   -1.0552 H   0  0
   16.8784    3.1253   -0.2672 H   0  0
   16.8704    2.1966   -1.7853 H   0  0
   19.6780    2.8783    0.9892 H   0  0
   22.9008    4.6024    0.4369 H   0  0
   21.8338    4.2368    1.8135 H   0  0
   21.1730    5.0214    0.3591 H   0  0
   23.5247    2.8804   -0.7746 H   0  0
   22.2356    2.0833   -1.7073 H   0  0
   22.8961    1.2996   -0.2523 H   0  0
   15.0700   -2.5298    0.9162 H   0  0
 13 14  2  0
  5  7  1  0
 14 15  1  0
  3  4  2  0
 15 16  2  0
 16 10  1  0
  7  8  2  0
 16 17  1  0
 15 18  1  0
  8  9  1  0
 18 19  1  0
  4  5  1  0
 19 20  2  0
  9 10  1  0
 20 21  1  0
  2  3  1  0
 21 22  1  0
  9 11  2  0
 20 23  1  0
  5  6  2  0
 22 24  1  0
 10 12  2  0
 24 25  2  0
  6  1  1  0
 25 26  1  0
 12 13  1  0
 25 27  1  0
  1  2  2  0
 14 28  1  0
  1 29  1  0
  2 30  1  0
  3 31  1  0
  4 32  1  0
  6 33  1  0
  7 34  1  0
  8 35  1  0
 12 36  1  0
 13 37  1  0
 17 38  1  0
 18 39  1  0
 18 40  1  0
 19 41  1  0
 21 42  1  0
 21 43  1  0
 22 44  1  0
 22 45  1  0
 23 46  1  0
 23 47  1  0
 23 48  1  0
 24 49  1  0
 26 50  1  0
 26 51  1  0
 26 52  1  0
 27 53  1  0
 27 54  1  0
 27 55  1  0
 28 56  1  0
M  END
> <Name>
Molecule

> <Clean Energy>
2.92611

> <From>
www.bindingDB.org

> <BindingDB Reactant_set_id>
50308832

> <Ligand InChI>
InChI=1S/C25H28O3/c1-18(2)8-7-9-19(3)12-14-21-24(27)17-15-22(25(21)28)23(26)16-13-20-10-5-4-6-11-20/h4-6,8,10-13,15-17,27-28H,7,9,14H2,1-3H3/b16-13+,19-12+

> <Ligand InChI Key>
JXLAPMLQWVGPBT-PWICXLLZSA-N

> <BindingDB MonomerID>
50069691

> <BindingDB Ligand Name>
Xanthoangelol::Xanthoangerol

> <Target Name>
Tyrosine-protein phosphatase non-receptor type 1

> <Target Source Organism According to Curator or DataSource>
Homo sapiens

> <IC50 (nM)>
2

> <Curation/DataSource>
ChEMBL

> <Article DOI>
10.1016/j.bmcl.2015.04.003

> <BindingDB Entry DOI>
10.7270/Q2XP76M3

> <PMID>
25891102

> <Authors>
Li, JL; Gao, LX; Meng, FW; Tang, CL; Zhang, RJ; Li, JY; Luo, C; Li, J; Zhao, WM

> <Institution>
Chinese Academy of Sciences

> <Link to Ligand in BindingDB>
http://www.bindingdb.org/bind/chemsearch/marvin/MolStructure.jsp?monomerid=50069691

> <Link to Ligand-Target Pair in BindingDB>
http://www.bindingdb.org/jsp/dbsearch/PrimarySearch_ki.jsp?energyterm=kJ/mole&tag=pol&polymerid=2622&target=Tyrosine-protein+phosphatase+non-receptor+type+1&column=ki&startPg=0&Increment=50&submit=Sea
rch
http://www.bindingdb.org/jsp/dbsearch/PrimarySearch_ki.jsp?energyterm=kJ/mole&tag=r21&monomerid=50069691&enzyme=Tyrosine-protein+phosphatase+non-receptor+type+1&column=ki&startPg=0&Increment=50&submit
=Search

> <PubChem CID of Ligand>
44579769

> <PubChem SID of Ligand>
103963727

> <ZINC ID of Ligand>
ZINC27746675

> <Number of Protein Chains in Target (bigger than 1 implies a multichain complex)>
1

> <BindingDB Target Chain Sequence>
MEMEKEFEQIDKSGSWAAIYQDIRHEASDFPCRVAKLPKNKNRNRYRDVSPFDHSRIKLHQEDNDYINASLIKMEEAQRSYILTQGPLPNTCGHFWEMVWEQKSRGVVMLNRVMEKGSLKCAQYWPQKEEKEMIFEDTNLKLTLISEDIKSYYTVRQLELENLTTQETREILHFHYTTWPDFGVPESPASFLNFLFKVRE
SGSLSPEHGPVVVHCSAGIGRSGTFCLADTCLLLMDKRKDPSSVDIKKVLLEMRKFRMGLIQTADQLRFSYLAVIEGAKFIMGDSSVQDQWKELSHEDLEPPPEHIPPPPRPPKRILEPHNGKCREFFPNHQWVKEETQEDKDCPIKEEKGSPLNAAPYGIESMSQDTEVRSRVVGGSLRGAQAASPAKGEPSLPEKDED
HALSYWKPFLVNMCVATVLTAGAYLCYRFLFNSNT

> <PDB ID(s) of Target Chain>
1BZJ,1G7G,1GFY,1JF7,1KAK,1KAV,1LQF,1NL9,1NNY,1NO6,1NZ7,1OEM,1OEO,1OES,1OET,1OEU,1OEV,1ONY,1ONZ,1PH0,1PXH,1PYN,1Q1M,1Q6J,1Q6M,1Q6N,1Q6P,1Q6S,1Q6T,1QXK,1SUG,1T48,1T49,1T4J,1WAX,1XBO,2AZR,2B07,2BGD,2BGE,
2CM2,2CM3,2CM7,2CM8,2CMA,2CMB,2CMC,2CNE,2CNF,2CNG,2CNH,2CNI,2F6T,2F6V,2F6W,2F6Y,2F6Z,2F70,2F71,2FJN,2H4G,2H4K,2HB1,2HNP,2HNQ,2QBP,2QBQ,2QBR,2QBS,2VEU,2VEV,2VEW,2VEX,2VEY,2ZMM,2ZN7,3A5J,3CWE,3D9C,3EAX,
3EB1,3EU0,3I7Z,3I80,3SME,4BJO,4I8N,4QBW,4Y14,5K9V,5K9W,5KA0,5KA1,5T19,6B90,6NTP,6W30,7KEY,7KLX,7LFO,7MN9,7MNA,8DU7,8G65,8G67,8G68,8G69,8G6A,8SKL

> <UniProt (SwissProt) Recommended Name of Target Chain>
Tyrosine-protein phosphatase non-receptor type 1

> <UniProt (SwissProt) Entry Name of Target Chain>
PTN1_HUMAN

> <UniProt (SwissProt) Primary ID of Target Chain>
P18031

> <UniProt (SwissProt) Secondary ID(s) of Target Chain>
Q5TGD8 Q9BQV9 Q9NQQ4

$$$$
Molecule
  SciTegic10242319433D

 68 69  0  0  0  0            999 V2000
   -5.3999   -4.0441    0.1961 C   0  0
   -3.9326   -3.9944    0.1026 C   0  0
   -3.3399   -2.8156    0.0342 C   0  0
   -4.1056   -1.5708    0.0345 C   0  0
   -5.4378   -1.6149    0.1059 C   0  0
   -6.1071   -2.9127    0.1957 C   0  0
   -3.1557   -5.3411    0.0535 C   0  0
   -6.2168   -0.3193    0.0517 C   0  0
   -7.8585   -0.5694   -0.1195 P   0  0
   -8.1012   -1.2740   -1.2817 O   0  0
   -8.4156   -1.3534    1.0984 O   0  0
   -8.5722    0.8027   -0.2022 O   0  0
   -5.7267    0.4274   -0.9994 F   0  0
   -5.9628    0.4015    1.1991 F   0  0
   -1.6257   -5.2628   -0.1398 C   0  0
   -1.0084   -6.3315   -0.3385 O   0  0
   -0.9683   -4.1122   -0.0761 N   0  0
    0.4762   -3.8430   -0.1925 C   0  0  1  0  0  0
    0.6163   -2.4570    0.4629 C   0  0
   -0.1717   -1.3972   -0.2314 C   0  0
   -0.0935   -0.0847    0.2236 O   0  0
   -0.8455   -1.6674   -1.2304 O   0  0
    1.4275   -4.9346    0.5033 C   0  0
    0.9032   -5.9244    1.0008 O   0  0
    2.8071   -4.8902    0.6002 N   0  0
    3.7688   -3.8643    0.1402 C   0  0  2  0  0  0
    5.1455   -4.5268    0.0615 C   0  0
    3.7234   -2.6438    1.1292 C   0  0
    4.4046   -1.3448    0.7567 C   0  0
    5.4393   -1.2644   -0.0740 C   0  0
    6.0313    0.0332   -0.3675 C   0  0
    5.5262    1.1455    0.1650 C   0  0
    4.3741    1.0660    1.0469 C   0  0
    3.8462   -0.1178    1.3341 C   0  0
    6.1552    2.4857   -0.0988 C   0  0
    5.3893    3.1605   -1.0261 F   0  0
    6.1146    3.2168    1.0706 F   0  0
    7.7179    2.3343   -0.6641 P   0  0
    8.5719    1.5735    0.3866 O   0  0
    7.7386    1.6514   -1.8649 O   0  0
    8.3166    3.7429   -0.8824 O   0  0
    6.2826   -3.9024    0.5821 N   0  0
    5.2318   -5.6987   -0.3225 O   0  0
   -5.9094   -5.0052    0.2658 H   0  0
   -2.2523   -2.7703   -0.0239 H   0  0
   -3.5916   -0.6113   -0.0231 H   0  0
   -7.1941   -2.9558    0.2631 H   0  0
   -3.3418   -5.8621    0.9926 H   0  0
   -3.5617   -5.9246   -0.7729 H   0  0
   -7.9334   -2.2836    1.1667 H   0  0
   -8.3873    1.3475    0.6762 H   0  0
   -1.5794   -3.2486    0.0840 H   0  0
    0.7386   -3.7647   -1.2475 H   0  0
    0.2716   -2.5251    1.4947 H   0  0
    1.6683   -2.1718    0.4488 H   0  0
   -0.4180   -0.0396    1.2212 H   0  0
    3.2500   -5.7343    1.0863 H   0  0
    3.4793   -3.5265   -0.8549 H   0  0
    2.6714   -2.4115    1.2948 H   0  0
    4.1735   -2.9787    2.0637 H   0  0
    5.8430   -2.1665   -0.5337 H   0  0
    6.8956    0.0952   -1.0288 H   0  0
    3.9452    1.9741    1.4708 H   0  0
    2.9896   -0.1783    2.0054 H   0  0
    8.5753    2.1090    1.2898 H   0  0
    7.7366    4.2653   -1.5847 H   0  0
    6.2002   -2.9422    1.0469 H   0  0
    7.2354   -4.3846    0.5157 H   0  0
  2  3  2  0
  3  4  1  0
  4  5  2  0
  5  6  1  0
  6  1  2  0
  2  7  1  0
  5  8  1  0
  8  9  1  0
  9 10  2  0
  9 11  1  0
  9 12  1  0
  8 13  1  0
  8 14  1  0
  7 15  1  0
 15 16  2  0
 15 17  1  0
 18 17  1  0
 18 19  1  0
 19 20  1  0
 20 21  1  0
 20 22  2  0
 18 23  1  0
 23 24  2  0
 23 25  1  0
 26 25  1  0
 26 27  1  0
 26 28  1  0
 28 29  1  0
 29 30  2  0
 30 31  1  0
 31 32  2  0
 32 33  1  0
 33 34  2  0
 34 29  1  0
 32 35  1  0
 35 36  1  0
 35 37  1  0
 35 38  1  0
 38 39  1  0
 38 40  2  0
 38 41  1  0
 27 42  1  0
  1  2  1  0
 27 43  2  0
  1 44  1  0
  3 45  1  0
  4 46  1  0
  6 47  1  0
  7 48  1  0
  7 49  1  0
 11 50  1  0
 12 51  1  0
 17 52  1  0
 18 53  1  0
 19 54  1  0
 19 55  1  0
 21 56  1  0
 25 57  1  0
 26 58  1  0
 28 59  1  0
 28 60  1  0
 30 61  1  0
 31 62  1  0
 33 63  1  0
 34 64  1  0
 39 65  1  0
 41 66  1  0
 42 67  1  0
 42 68  1  0
M  END
> <Name>
Molecule

> <Clean Energy>
78.1002

> <From>
www.bindingDB.org

> <BindingDB Reactant_set_id>
50529050

> <Ligand InChI>
InChI=1S/C23H25F4N3O11P2/c24-22(25,42(36,37)38)14-5-1-12(2-6-14)9-16(20(28)34)30-21(35)17(11-19(32)33)29-18(31)10-13-3-7-15(8-4-13)23(26,27)43(39,40)41/h1-8,16-17H,9-11H2,(H2,28,34)(H,29,31)(H,30,35)(
H,32,33)(H2,36,37,38)(H2,39,40,41)/t16-,17-/m0/s1

> <Ligand InChI Key>
FKOYIUYWMSVYKN-IRXDYDNUSA-N

> <BindingDB MonomerID>
50131550

> <BindingDB Ligand Name>
(3S)-3-{[(1S)-1-carbamoyl-2-{4-[difluoro(phosphono)methyl]phenyl}ethyl]carbamoyl}-3-(2-{4-[difluoro(phosphono)methyl]phenyl}acetamido)propanoic acid::(S)-4-((S)-1-amino-3-(4-(difluoro(phosphono)methyl
)phenyl)-1-oxopropan-2-ylamino)-3-(2-(4-(difluoro(phosphono)methyl)phenyl)acetamido)-4-oxobutanoic acid::CHEMBL326115::N-{1-Carbamoyl-2-[4-(difluoro-phosphono-methyl)-phenyl]-ethyl}-3-{2-[4-(difluoro-
phosphono-methyl)-phenyl]-acetylamino}-succinamic acid

> <Target Name>
Tyrosine-protein phosphatase non-receptor type 1

> <Target Source Organism According to Curator or DataSource>
Homo sapiens

> <IC50 (nM)>
2.4

> <Curation/DataSource>
ChEMBL

> <Article DOI>
10.1016/j.ejmech.2016.05.060

> <BindingDB Entry DOI>
10.7270/Q25Q4Z2D

> <PMID>
27526040

> <Authors>
Meng, G; Zheng, M; Wang, M; Tong, J; Ge, W; Zhang, J; Zheng, A; Li, J; Gao, L; Li, J

> <Institution>
Xi'an Jiaotong University

> <Link to Ligand in BindingDB>
http://www.bindingdb.org/bind/chemsearch/marvin/MolStructure.jsp?monomerid=50131550

> <Link to Ligand-Target Pair in BindingDB>
http://www.bindingdb.org/jsp/dbsearch/PrimarySearch_ki.jsp?energyterm=kJ/mole&tag=pol&polymerid=2622&target=Tyrosine-protein+phosphatase+non-receptor+type+1&column=ki&startPg=0&Increment=50&submit=Sea
rch
http://www.bindingdb.org/jsp/dbsearch/PrimarySearch_ki.jsp?energyterm=kJ/mole&tag=r21&monomerid=50131550&enzyme=Tyrosine-protein+phosphatase+non-receptor+type+1&column=ki&startPg=0&Increment=50&submit
=Search

> <PubChem CID of Ligand>
10258785

> <PubChem SID of Ligand>
104022680

> <ChEMBL ID of Ligand>
CHEMBL326115

> <ZINC ID of Ligand>
ZINC27084621

> <Number of Protein Chains in Target (bigger than 1 implies a multichain complex)>
1

> <BindingDB Target Chain Sequence>
MEMEKEFEQIDKSGSWAAIYQDIRHEASDFPCRVAKLPKNKNRNRYRDVSPFDHSRIKLHQEDNDYINASLIKMEEAQRSYILTQGPLPNTCGHFWEMVWEQKSRGVVMLNRVMEKGSLKCAQYWPQKEEKEMIFEDTNLKLTLISEDIKSYYTVRQLELENLTTQETREILHFHYTTWPDFGVPESPASFLNFLFKVRE
SGSLSPEHGPVVVHCSAGIGRSGTFCLADTCLLLMDKRKDPSSVDIKKVLLEMRKFRMGLIQTADQLRFSYLAVIEGAKFIMGDSSVQDQWKELSHEDLEPPPEHIPPPPRPPKRILEPHNGKCREFFPNHQWVKEETQEDKDCPIKEEKGSPLNAAPYGIESMSQDTEVRSRVVGGSLRGAQAASPAKGEPSLPEKDED
HALSYWKPFLVNMCVATVLTAGAYLCYRFLFNSNT

> <PDB ID(s) of Target Chain>
1BZJ,1G7G,1GFY,1JF7,1KAK,1KAV,1LQF,1NL9,1NNY,1NO6,1NZ7,1OEM,1OEO,1OES,1OET,1OEU,1OEV,1ONY,1ONZ,1PH0,1PXH,1PYN,1Q1M,1Q6J,1Q6M,1Q6N,1Q6P,1Q6S,1Q6T,1QXK,1SUG,1T48,1T49,1T4J,1WAX,1XBO,2AZR,2B07,2BGD,2BGE,
2CM2,2CM3,2CM7,2CM8,2CMA,2CMB,2CMC,2CNE,2CNF,2CNG,2CNH,2CNI,2F6T,2F6V,2F6W,2F6Y,2F6Z,2F70,2F71,2FJN,2H4G,2H4K,2HB1,2HNP,2HNQ,2QBP,2QBQ,2QBR,2QBS,2VEU,2VEV,2VEW,2VEX,2VEY,2ZMM,2ZN7,3A5J,3CWE,3D9C,3EAX,
3EB1,3EU0,3I7Z,3I80,3SME,4BJO,4I8N,4QBW,4Y14,5K9V,5K9W,5KA0,5KA1,5T19,6B90,6NTP,6W30,7KEY,7KLX,7LFO,7MN9,7MNA,8DU7,8G65,8G67,8G68,8G69,8G6A,8SKL

> <UniProt (SwissProt) Recommended Name of Target Chain>
Tyrosine-protein phosphatase non-receptor type 1

> <UniProt (SwissProt) Entry Name of Target Chain>
PTN1_HUMAN

> <UniProt (SwissProt) Primary ID of Target Chain>
P18031

> <UniProt (SwissProt) Secondary ID(s) of Target Chain>
Q5TGD8 Q9BQV9 Q9NQQ4

$$$$
6
  SciTegic10242319433D

 76 81  0  0  0  0            999 V2000
   -5.6641    3.3688    0.8849 C   0  0
   -5.4367    2.8880   -0.3377 C   0  0
   -4.0679    2.5888   -0.7749 C   0  0
   -3.0255    2.8240    0.0419 C   0  0
   -3.2991    3.3473    1.4387 C   0  0
   -4.5524    3.6028    1.8162 C   0  0
   -0.1268    2.4220    0.3834 C   0  0
    0.9958    1.2957    0.3195 C   0  0
    0.7259    0.0050    0.3743 C   0  0
    1.7183   -1.0069    0.3024 C   0  0
    2.9921   -0.6887    0.1981 C   0  0
    3.3837    0.7354    0.1695 C   0  0
    2.4314    1.6821    0.2254 C   0  0
    3.9401   -1.7945    0.1004 C   0  0
    3.4438   -3.0296    0.0043 C   0  0
    4.3263   -4.1789   -0.1028 C   0  0
    5.6416   -3.9976   -0.0954 C   0  0
    6.1941   -2.6465    0.0198 C   0  0
    5.3854   -1.5882    0.1089 C   0  0
   -1.5939    2.4405   -0.4335 C   0  0  1  0  0  0
   -2.2367    1.2929    0.4888 C   0  0
   -2.2733   -0.2075    0.1091 C   0  0
   -2.7462   -1.1072    1.1504 C   0  0
   -2.7378   -2.4204    0.9790 C   0  0
   -2.2558   -2.9973   -0.2579 C   0  0
   -1.8486   -2.1936   -1.2477 C   0  0
   -1.8655   -0.7132   -1.0643 C   0  0
   -2.1657   -4.5054   -0.3895 C   0  0
   -1.2792   -4.9670    0.5657 F   0  0
   -1.7243   -4.8467   -1.6480 F   0  0
   -3.6261   -5.2462   -0.0534 P   0  0
   -3.4675   -6.6134   -0.1592 O   0  0
   -4.6876   -4.7709   -1.0724 O   0  0
   -4.1051   -4.9162    1.3868 O   0  0
   -1.3287    4.0627   -0.2585 N   0  0
   -0.1116    4.5569    0.2433 N   0  0
   -0.0710    5.7864    0.3136 N   0  0
   -1.2585    6.3342   -0.1487 C   0  0
   -2.0839    5.3167   -0.5755 C   0  0
   -3.7095    7.0058   -1.1965 C   0  0
   -3.2843    5.5945   -1.1116 C   0  0
   -1.5844    7.6196   -0.1982 C   0  0
   -2.9027    7.9734   -0.7481 C   0  0
    7.7907   -2.4558    0.0640 P   0  0
    8.1045   -1.1353    0.3111 O   0  0
    8.3963   -2.9110   -1.2865 O   0  0
    8.3634   -3.3684    1.1788 O   0  0
   -6.6849    3.5903    1.1964 H   0  0
   -6.2721    2.7161   -1.0164 H   0  0
   -3.8951    2.1734   -1.7677 H   0  0
   -2.4744    3.5139    2.1316 H   0  0
   -4.7521    3.9858    2.8169 H   0  0
    0.3774    3.3374    0.0738 H   0  0
   -0.3931    2.4921    1.4381 H   0  0
   -0.3151   -0.3002    0.4805 H   0  0
    1.4239   -2.0559    0.3338 H   0  0
    4.4350    1.0158    0.1036 H   0  0
    2.7103    2.7355    0.2017 H   0  0
    2.3640   -3.1779    0.0061 H   0  0
    3.9113   -5.1832   -0.1887 H   0  0
    6.3102   -4.8547   -0.1750 H   0  0
    5.7989   -0.5827    0.1870 H   0  0
   -1.7027    1.3439    1.4377 H   0  0
   -3.2761    1.5842    0.6401 H   0  0
   -3.1142   -0.6927    2.0889 H   0  0
   -3.0968   -3.0719    1.7757 H   0  0
   -1.5040   -2.6215   -2.1892 H   0  0
   -1.5511   -0.0523   -1.8720 H   0  0
   -4.7984   -3.7290   -1.0029 H   0  0
   -3.3916   -5.2535    2.0794 H   0  0
   -4.6798    7.2587   -1.6239 H   0  0
   -3.9300    4.7955   -1.4758 H   0  0
   -0.8980    8.3883    0.1570 H   0  0
   -3.2189    9.0157   -0.7898 H   0  0
    8.1672   -3.9225   -1.4502 H   0  0
    7.9444   -3.0979    2.1029 H   0  0
  1  2  2  0
  1  6  1  0
  2  3  1  0
  3  4  2  0
  4  5  1  0
  5  6  2  0
  4 20  1  0
 20  7  1  0
  7  8  1  0
  8  9  2  0
  8 13  1  0
  9 10  1  0
 10 11  2  0
 11 12  1  0
 12 13  2  0
 11 14  1  0
 14 15  2  0
 14 19  1  0
 15 16  1  0
 16 17  2  0
 17 18  1  0
 18 19  2  0
 20 35  1  0
 20 21  1  0
 21 22  1  0
 27 22  2  0
 23 22  1  0
 23 24  2  0
 24 25  1  0
 25 26  2  0
 26 27  1  0
 25 28  1  0
 28 29  1  0
 28 31  1  0
 28 30  1  0
 31 33  1  0
 31 32  2  0
 31 34  1  0
 39 35  1  0
 35 36  1  0
 38 37  1  0
 36 37  2  0
 38 42  2  0
 38 39  1  0
 41 39  2  0
 40 41  1  0
 40 43  2  0
 42 43  1  0
 18 44  1  0
 44 47  1  0
 44 45  2  0
 44 46  1  0
  1 48  1  0
  2 49  1  0
  3 50  1  0
  5 51  1  0
  6 52  1  0
  7 53  1  0
  7 54  1  0
  9 55  1  0
 10 56  1  0
 12 57  1  0
 13 58  1  0
 15 59  1  0
 16 60  1  0
 17 61  1  0
 19 62  1  0
 21 63  1  0
 21 64  1  0
 23 65  1  0
 24 66  1  0
 26 67  1  0
 27 68  1  0
 33 69  1  0
 34 70  1  0
 40 71  1  0
 41 72  1  0
 42 73  1  0
 43 74  1  0
 46 75  1  0
 47 76  1  0
M  END
> <Name>
6

> <Clean Energy>
209.979

> <From>
www.bindingDB.org

> <BindingDB Reactant_set_id>
50503538

> <Ligand InChI>
InChI=1S/C34H29F2N3O6P2/c35-34(36,47(43,44)45)29-19-15-25(16-20-29)23-33(28-8-2-1-3-9-28,39-32-12-5-4-11-31(32)37-38-39)22-24-13-17-26(18-14-24)27-7-6-10-30(21-27)46(40,41)42/h1-21H,22-23H2,(H2,40,41,
42)(H2,43,44,45)

> <Ligand InChI Key>
DIRCLNUEXQQLRT-UHFFFAOYSA-N

> <BindingDB MonomerID>
13599

> <BindingDB Ligand Name>
3-{4-[2-(1H-1,2,3-benzotriazol-1-yl)-3-{4-[difluoro(phosphono)methyl]phenyl}-2-phenylpropyl]phenyl}benzene-1-phosphonic acid::Aryldifluoromethyl-Phosphonic Acid Inhibitor 6::CHEMBL269166

> <Target Name>
Tyrosine-protein phosphatase non-receptor type 1

> <Target Source Organism According to Curator or DataSource>
Homo sapiens

> <IC50 (nM)>
3

> <Curation/DataSource>
ChEMBL

> <Article DOI>
10.1016/j.bmc.2016.06.035

> <BindingDB Entry DOI>
10.7270/Q20Z756P

> <PMID>
27353889

> <Authors>
Li, X; Wang, L; Shi, D

> <Institution>
Chinese Academy of Sciences

> <Link to Ligand in BindingDB>
http://www.bindingdb.org/bind/chemsearch/marvin/MolStructure.jsp?monomerid=13599

> <Link to Ligand-Target Pair in BindingDB>
http://www.bindingdb.org/jsp/dbsearch/PrimarySearch_ki.jsp?energyterm=kJ/mole&tag=pol&polymerid=2622&target=Tyrosine-protein+phosphatase+non-receptor+type+1&column=ki&startPg=0&Increment=50&submit=Sea
rch
http://www.bindingdb.org/jsp/dbsearch/PrimarySearch_ki.jsp?energyterm=kJ/mole&tag=r21&monomerid=13599&enzyme=Tyrosine-protein+phosphatase+non-receptor+type+1&column=ki&startPg=0&Increment=50&submit=Se
arch

> <Ligand HET ID in PDB>
213

> <PDB ID(s) for Ligand-Target Complex>
1Q6P

> <PubChem CID of Ligand>
10168739

> <PubChem SID of Ligand>
46513994

> <ChEMBL ID of Ligand>
CHEMBL269166

> <ZINC ID of Ligand>
ZINC25997980

> <Number of Protein Chains in Target (bigger than 1 implies a multichain complex)>
1

> <BindingDB Target Chain Sequence>
MEMEKEFEQIDKSGSWAAIYQDIRHEASDFPCRVAKLPKNKNRNRYRDVSPFDHSRIKLHQEDNDYINASLIKMEEAQRSYILTQGPLPNTCGHFWEMVWEQKSRGVVMLNRVMEKGSLKCAQYWPQKEEKEMIFEDTNLKLTLISEDIKSYYTVRQLELENLTTQETREILHFHYTTWPDFGVPESPASFLNFLFKVRE
SGSLSPEHGPVVVHCSAGIGRSGTFCLADTCLLLMDKRKDPSSVDIKKVLLEMRKFRMGLIQTADQLRFSYLAVIEGAKFIMGDSSVQDQWKELSHEDLEPPPEHIPPPPRPPKRILEPHNGKCREFFPNHQWVKEETQEDKDCPIKEEKGSPLNAAPYGIESMSQDTEVRSRVVGGSLRGAQAASPAKGEPSLPEKDED
HALSYWKPFLVNMCVATVLTAGAYLCYRFLFNSNT

> <PDB ID(s) of Target Chain>
1BZJ,1G7G,1GFY,1JF7,1KAK,1KAV,1LQF,1NL9,1NNY,1NO6,1NZ7,1OEM,1OEO,1OES,1OET,1OEU,1OEV,1ONY,1ONZ,1PH0,1PXH,1PYN,1Q1M,1Q6J,1Q6M,1Q6N,1Q6P,1Q6S,1Q6T,1QXK,1SUG,1T48,1T49,1T4J,1WAX,1XBO,2AZR,2B07,2BGD,2BGE,
2CM2,2CM3,2CM7,2CM8,2CMA,2CMB,2CMC,2CNE,2CNF,2CNG,2CNH,2CNI,2F6T,2F6V,2F6W,2F6Y,2F6Z,2F70,2F71,2FJN,2H4G,2H4K,2HB1,2HNP,2HNQ,2QBP,2QBQ,2QBR,2QBS,2VEU,2VEV,2VEW,2VEX,2VEY,2ZMM,2ZN7,3A5J,3CWE,3D9C,3EAX,
3EB1,3EU0,3I7Z,3I80,3SME,4BJO,4I8N,4QBW,4Y14,5K9V,5K9W,5KA0,5KA1,5T19,6B90,6NTP,6W30,7KEY,7KLX,7LFO,7MN9,7MNA,8DU7,8G65,8G67,8G68,8G69,8G6A,8SKL

> <UniProt (SwissProt) Recommended Name of Target Chain>
Tyrosine-protein phosphatase non-receptor type 1

> <UniProt (SwissProt) Entry Name of Target Chain>
PTN1_HUMAN

> <UniProt (SwissProt) Primary ID of Target Chain>
P18031

> <UniProt (SwissProt) Secondary ID(s) of Target Chain>
Q5TGD8 Q9BQV9 Q9NQQ4

$$$$
Molecule
  SciTegic10242319433D

 82 88  0  0  0  0            999 V2000
   -1.8441    3.7412    0.3399 C   0  0
   -3.0536    3.1500    0.6805 C   0  0
   -3.1462    1.8045    1.0158 C   0  0
   -1.9491    1.0766    1.0488 C   0  0
   -0.7246    1.6437    0.6732 C   0  0
   -0.6847    2.9821    0.3111 C   0  0
    0.4472    0.8799    0.5968 C   0  0
    1.6469    1.4529    0.1564 C   0  0
    1.6662    2.8075   -0.1814 C   0  0
    0.5055    3.5632   -0.1000 C   0  0
    3.2610    3.6740   -0.7848 Br  0  0
    2.9582    0.6295   -0.0001 C   0  0
    3.8788    1.1074    0.9093 F   0  0
    2.8129   -1.0204    0.1720 P   0  0
    3.4748    0.8720   -1.2579 F   0  0
   -4.5885    1.0685    1.2995 C   0  0
   -5.8285    1.0150    0.1178 C   0  0  1  0  0  0
   -7.1168    0.2359    0.7329 C   0  0
   -6.2070    2.5642   -0.2095 N   0  0
   -5.3039    3.3732   -0.5727 N   0  0
   -5.7014    4.5755   -0.7440 N   0  0
   -6.9819    4.5755   -0.4978 C   0  0
   -7.3586    3.2940   -0.1673 C   0  0
   -8.6784    3.0332    0.1221 C   0  0
   -9.6031    4.0881    0.0810 C   0  0
   -9.2013    5.3857   -0.2409 C   0  0
   -7.8726    5.6482   -0.5406 C   0  0
   -7.5083   -1.1966    0.5439 C   0  0
   -7.9610    0.8907    1.3369 O   0  0
   -8.8654   -1.5057    0.5237 C   0  0
   -9.2930   -2.8177    0.3442 C   0  0
   -8.3644   -3.8419    0.2062 C   0  0
   -7.0098   -3.5451    0.2522 C   0  0
   -6.5968   -2.2295    0.4177 C   0  0
    4.2175   -1.6508   -0.0557 O   0  0
    1.9417   -1.5163   -0.7772 O   0  0
    2.3168   -1.3876    1.5885 O   0  0
   -5.1774    0.2853   -1.2721 C   0  0
   -4.0988   -0.9357   -1.1549 C   0  0
   -4.2816   -2.2507   -0.8960 N   0  0
   -3.2448   -3.1050   -0.7216 C   0  0
   -1.9522   -2.6130   -0.7905 C   0  0
   -1.7233   -1.3014   -1.1257 C   0  0
   -2.8076   -0.4797   -1.3266 C   0  0
   -3.3814   -4.4810   -0.4560 C   0  0
   -2.2694   -5.3231   -0.2272 C   0  0
   -0.9890   -4.7441   -0.2269 C   0  0
   -0.8566   -3.4054   -0.5300 C   0  0
    0.6698   -5.6065    0.1400 Br  0  0
   -2.5484   -6.8769   -0.0017 C   0  0
   -1.2545   -7.9356    0.3130 P   0  0
   -3.4838   -6.9993    0.9968 F   0  0
   -3.1655   -7.3227   -1.1537 F   0  0
   -1.7948   -9.3802    0.4449 O   0  0
   -0.6338   -7.6002    1.5007 O   0  0
   -0.2344   -7.9377   -0.8653 O   0  0
   -1.8065    4.8027    0.0950 H   0  0
   -3.9573    3.7595    0.6851 H   0  0
   -1.9716    0.0373    1.3769 H   0  0
    0.4251   -0.1716    0.8832 H   0  0
    0.5293    4.6212   -0.3610 H   0  0
   -4.3585    0.0323    1.5475 H   0  0
   -5.0179    1.5643    2.1701 H   0  0
   -9.0003    2.0239    0.3789 H   0  0
  -10.6517    3.8912    0.3041 H   0  0
   -9.9327    6.1938   -0.2568 H   0  0
   -7.5377    6.6527   -0.7993 H   0  0
   -9.6011   -0.7114    0.6499 H   0  0
  -10.3591   -3.0424    0.3119 H   0  0
   -8.6973   -4.8699    0.0629 H   0  0
   -6.2721   -4.3420    0.1588 H   0  0
   -5.5305   -2.0058    0.4488 H   0  0
    4.5553   -1.4148   -1.0215 H   0  0
    3.0009   -1.0338    2.3022 H   0  0
   -6.0215   -0.1009   -1.8434 H   0  0
   -4.6876    1.0780   -1.8375 H   0  0
   -0.7073   -0.9208   -1.2300 H   0  0
   -2.6435    0.5548   -1.6283 H   0  0
   -4.3818   -4.9128   -0.4258 H   0  0
    0.1394   -2.9638   -0.5641 H   0  0
   -2.4853   -9.4254    1.2347 H   0  0
   -0.7159   -8.2478   -1.7453 H   0  0
  1  2  4  0
  1  6  4  0
  2  3  4  0
  3  4  4  0
  4  5  4  0
  5  7  4  0
  6  5  4  0
  6 10  4  0
  7  8  4  0
  8  9  4  0
  9 10  4  0
  9 11  1  0
  8 12  1  0
 12 13  1  0
 12 14  1  0
 12 15  1  0
  3 16  1  0
 16 17  1  0
 17 18  1  0
 17 19  1  0
 19 20  4  0
 19 23  4  0
 20 21  4  0
 21 22  4  0
 22 27  4  0
 22 23  4  0
 23 24  4  0
 24 25  4  0
 25 26  4  0
 26 27  4  0
 18 28  1  0
 18 29  2  0
 28 30  4  0
 28 34  4  0
 30 31  4  0
 31 32  4  0
 32 33  4  0
 33 34  4  0
 14 35  1  0
 14 36  2  0
 14 37  1  0
 17 38  1  0
 38 39  1  0
 39 40  4  0
 39 44  4  0
 40 41  4  0
 42 43  4  0
 43 44  4  0
 41 45  4  0
 41 42  4  0
 42 48  4  0
 45 46  4  0
 46 47  4  0
 47 48  4  0
 47 49  1  0
 46 50  1  0
 50 51  1  0
 50 52  1  0
 50 53  1  0
 51 54  1  0
 51 55  2  0
 51 56  1  0
  1 57  1  0
  2 58  1  0
  4 59  1  0
  7 60  1  0
 10 61  1  0
 16 62  1  0
 16 63  1  0
 24 64  1  0
 25 65  1  0
 26 66  1  0
 27 67  1  0
 30 68  1  0
 31 69  1  0
 32 70  1  0
 33 71  1  0
 34 72  1  0
 35 73  1  0
 37 74  1  0
 38 75  1  0
 38 76  1  0
 43 77  1  0
 44 78  1  0
 45 79  1  0
 48 80  1  0
 54 81  1  0
 56 82  1  0
M  END
> <Name>
Molecule

> <Clean Energy>
152.31

> <From>
www.bindingDB.org

> <BindingDB Reactant_set_id>
253403

> <Ligand InChI>
InChI=1S/C37H26Br2F4N4O7P2/c38-29-16-23-11-10-21(14-25(23)15-27(29)36(40,41)55(49,50)51)19-35(34(48)22-6-2-1-3-7-22,47-33-9-5-4-8-31(33)45-46-47)20-26-13-12-24-17-30(39)28(18-32(24)44-26)37(42,43)56(5
2,53)54/h1-18H,19-20H2,(H2,49,50,51)(H2,52,53,54)

> <Ligand InChI Key>
ZKLIYMLNDGMWPU-UHFFFAOYSA-N

> <BindingDB MonomerID>
124215

> <BindingDB Ligand Name>
({7-[2-(1H-1,2,3-benzotriazol-1-yl)-2-({6-bromo-7-[difluoro(phosphono)methyl]quinolin-2-yl}methyl)-3-oxo-3-phenylpropyl]-3-bromonaphthalen-2-yl}difluoromethyl)phosphonic acid (10i)

> <Target Name>
Tyrosine-protein phosphatase non-receptor type 1

> <Target Source Organism According to Curator or DataSource>
Homo sapiens

> <IC50 (nM)>
3

> <Curation/DataSource>
Curated from the literature by BindingDB

> <Article DOI>
10.1002/cmdc.201100077

> <BindingDB Entry DOI>
10.7270/Q2XW4HGZ

> <PMID>
21506278

> <PubChem AID>
aid1800514

> <Authors>
Patel, D; Jain, M; Shah, SR; Bahekar, R; Jadav, P; Darji, B; Siriki, Y; Bandyopadhyay, D; Joharapurkar, A; Kshirsagar, S; Patel, H; Shaikh, M; Sairam, KV; Patel, P

> <Institution>
Zydus Research Centre

> <Link to Ligand in BindingDB>
http://www.bindingdb.org/bind/chemsearch/marvin/MolStructure.jsp?monomerid=124215

> <Link to Ligand-Target Pair in BindingDB>
http://www.bindingdb.org/jsp/dbsearch/PrimarySearch_ki.jsp?energyterm=kJ/mole&tag=pol&polymerid=2622&target=Tyrosine-protein+phosphatase+non-receptor+type+1&column=ki&startPg=0&Increment=50&submit=Sea
rch
http://www.bindingdb.org/jsp/dbsearch/PrimarySearch_ki.jsp?energyterm=kJ/mole&tag=r21&monomerid=124215&enzyme=Tyrosine-protein+phosphatase+non-receptor+type+1&column=ki&startPg=0&Increment=50&submit=S
earch

> <PubChem CID of Ligand>
86766289

> <PubChem SID of Ligand>
225150607

> <Number of Protein Chains in Target (bigger than 1 implies a multichain complex)>
1

> <BindingDB Target Chain Sequence>
MEMEKEFEQIDKSGSWAAIYQDIRHEASDFPCRVAKLPKNKNRNRYRDVSPFDHSRIKLHQEDNDYINASLIKMEEAQRSYILTQGPLPNTCGHFWEMVWEQKSRGVVMLNRVMEKGSLKCAQYWPQKEEKEMIFEDTNLKLTLISEDIKSYYTVRQLELENLTTQETREILHFHYTTWPDFGVPESPASFLNFLFKVRE
SGSLSPEHGPVVVHCSAGIGRSGTFCLADTCLLLMDKRKDPSSVDIKKVLLEMRKFRMGLIQTADQLRFSYLAVIEGAKFIMGDSSVQDQWKELSHEDLEPPPEHIPPPPRPPKRILEPHNGKCREFFPNHQWVKEETQEDKDCPIKEEKGSPLNAAPYGIESMSQDTEVRSRVVGGSLRGAQAASPAKGEPSLPEKDED
HALSYWKPFLVNMCVATVLTAGAYLCYRFLFNSNT

> <PDB ID(s) of Target Chain>
1BZJ,1G7G,1GFY,1JF7,1KAK,1KAV,1LQF,1NL9,1NNY,1NO6,1NZ7,1OEM,1OEO,1OES,1OET,1OEU,1OEV,1ONY,1ONZ,1PH0,1PXH,1PYN,1Q1M,1Q6J,1Q6M,1Q6N,1Q6P,1Q6S,1Q6T,1QXK,1SUG,1T48,1T49,1T4J,1WAX,1XBO,2AZR,2B07,2BGD,2BGE,
2CM2,2CM3,2CM7,2CM8,2CMA,2CMB,2CMC,2CNE,2CNF,2CNG,2CNH,2CNI,2F6T,2F6V,2F6W,2F6Y,2F6Z,2F70,2F71,2FJN,2H4G,2H4K,2HB1,2HNP,2HNQ,2QBP,2QBQ,2QBR,2QBS,2VEU,2VEV,2VEW,2VEX,2VEY,2ZMM,2ZN7,3A5J,3CWE,3D9C,3EAX,
3EB1,3EU0,3I7Z,3I80,3SME,4BJO,4I8N,4QBW,4Y14,5K9V,5K9W,5KA0,5KA1,5T19,6B90,6NTP,6W30,7KEY,7KLX,7LFO,7MN9,7MNA,8DU7,8G65,8G67,8G68,8G69,8G6A,8SKL

> <UniProt (SwissProt) Recommended Name of Target Chain>
Tyrosine-protein phosphatase non-receptor type 1

> <UniProt (SwissProt) Entry Name of Target Chain>
PTN1_HUMAN

> <UniProt (SwissProt) Primary ID of Target Chain>
P18031

> <UniProt (SwissProt) Secondary ID(s) of Target Chain>
Q5TGD8 Q9BQV9 Q9NQQ4

$$$$
Molecule
  SciTegic10242319433D

 82 88  0  0  0  0            999 V2000
   -1.7934    3.7340    0.2998 C   0  0
   -3.0149    3.1568    0.6328 C   0  0
   -3.1167    1.8217    1.0030 C   0  0
   -1.9224    1.0988    1.0804 C   0  0
   -0.6852    1.6430    0.6999 C   0  0
   -0.6417    2.9696    0.3039 C   0  0
    0.4732    0.8641    0.6434 C   0  0
    1.6820    1.4127    0.1866 C   0  0
    1.7112    2.7609   -0.1771 C   0  0
    0.5602    3.5291   -0.1158 C   0  0
    3.3120    3.6061   -0.7950 Br  0  0
    2.9872    0.5674    0.0404 C   0  0
    3.8906    1.0096    0.9824 F   0  0
    2.8190   -1.0868    0.1678 P   0  0
    3.5398    0.8244   -1.1993 F   0  0
   -4.5740    1.0754    1.2535 C   0  0
   -5.8135    0.9939    0.0426 C   0  0  1  0  0  0
   -7.1094    0.2356    0.6995 C   0  0
   -6.2014    2.5459   -0.2555 N   0  0
   -5.2833    3.3699   -0.5795 N   0  0
   -5.6770    4.5711   -0.7192 N   0  0
   -6.9740    4.5663   -0.4917 C   0  0
   -7.3328    3.2744   -0.2136 C   0  0
   -8.6787    3.0066    0.0513 C   0  0
   -9.5934    4.0595    0.0328 C   0  0
   -9.1899    5.3684   -0.2389 C   0  0
   -7.8513    5.6376   -0.5124 C   0  0
   -7.5199   -1.1911    0.5682 C   0  0
   -7.9385    0.9092    1.3003 O   0  0
   -8.8752   -1.4764    0.4266 C   0  0
   -9.3157   -2.7904    0.3000 C   0  0
   -8.4046   -3.8383    0.3394 C   0  0
   -7.0567   -3.5621    0.5177 C   0  0
   -6.6287   -2.2447    0.6323 C   0  0
    4.2231   -1.7270   -0.0417 O   0  0
    1.9679   -1.5494   -0.8163 O   0  0
    2.2830   -1.4870    1.5597 O   0  0
   -5.1992    0.2107   -1.4064 C   0  0
   -4.1334   -1.0255   -1.2550 C   0  0
   -4.3386   -2.4208   -1.1755 C   0  0
   -3.2881   -3.2819   -0.8062 C   0  0
   -2.0407   -2.7413   -0.5352 C   0  0
   -1.8051   -1.4042   -0.7478 C   0  0
   -2.8414   -0.5798   -1.1145 C   0  0
   -3.4307   -4.6725   -0.6276 C   0  0
   -2.3714   -5.4516   -0.1291 C   0  0
   -1.1719   -4.8321    0.2290 C   0  0
   -1.0085   -3.4843   -0.0156 C   0  0
    0.2792   -5.7127    1.0919 Br  0  0
   -2.5338   -6.9761    0.0644 C   0  0
   -1.2874   -7.9344   -0.9381 S   0  0
   -3.7943   -7.3654   -0.3319 F   0  0
   -2.3270   -7.2994    1.3893 F   0  0
   -1.4971   -9.6369   -0.6706 N   0  0
    0.1607   -7.6140   -0.6283 O   0  0
   -1.7446    4.7903    0.0353 H   0  0
   -3.9163    3.7688    0.6024 H   0  0
   -1.9529    0.0740    1.4503 H   0  0
    0.4382   -0.1792    0.9570 H   0  0
    0.5969    4.5811   -0.3989 H   0  0
   -4.3416    0.0432    1.5154 H   0  0
   -5.0242    1.5758    2.1109 H   0  0
   -9.0085    1.9908    0.2691 H   0  0
  -10.6451    3.8564    0.2346 H   0  0
   -9.9207    6.1771   -0.2368 H   0  0
   -7.5087    6.6485   -0.7334 H   0  0
   -9.5992   -0.6617    0.4147 H   0  0
  -10.3778   -2.9977    0.1696 H   0  0
   -8.7456   -4.8680    0.2312 H   0  0
   -6.3346   -4.3770    0.5679 H   0  0
   -5.5680   -2.0387    0.7756 H   0  0
    4.5868   -1.4707   -0.9928 H   0  0
    2.9521   -1.1603    2.3001 H   0  0
   -6.0615   -0.1768   -1.9490 H   0  0
   -4.7106    0.9815   -2.0024 H   0  0
   -5.3209   -2.8351   -1.4025 H   0  0
   -0.8005   -0.9993   -0.6260 H   0  0
   -2.6294    0.4728   -1.3018 H   0  0
   -4.3767   -5.1516   -0.8796 H   0  0
   -0.0543   -3.0057    0.2047 H   0  0
   -2.4841   -9.9259   -0.9658 H   0  0
   -1.3574   -9.8552    0.3676 H   0  0
  1  2  4  0
  1  6  4  0
  2  3  4  0
  3  4  4  0
  4  5  4  0
  5  7  4  0
  6  5  4  0
  6 10  4  0
  7  8  4  0
  8  9  4  0
  9 10  4  0
  9 11  1  0
  8 12  1  0
 12 13  1  0
 12 14  1  0
 12 15  1  0
  3 16  1  0
 16 17  1  0
 17 18  1  0
 17 19  1  0
 19 20  4  0
 19 23  4  0
 20 21  4  0
 21 22  4  0
 22 27  4  0
 22 23  4  0
 23 24  4  0
 24 25  4  0
 25 26  4  0
 26 27  4  0
 18 28  1  0
 18 29  2  0
 28 30  4  0
 28 34  4  0
 30 31  4  0
 31 32  4  0
 32 33  4  0
 33 34  4  0
 14 35  1  0
 14 36  2  0
 14 37  1  0
 17 38  1  0
 38 39  1  0
 39 40  4  0
 39 44  4  0
 40 41  4  0
 42 43  4  0
 43 44  4  0
 41 45  4  0
 41 42  4  0
 42 48  4  0
 45 46  4  0
 46 47  4  0
 47 48  4  0
 47 49  1  0
 46 50  1  0
 50 51  1  0
 50 52  1  0
 50 53  1  0
 51 54  1  0
 51 55  2  0
  1 56  1  0
  2 57  1  0
  4 58  1  0
  7 59  1  0
 10 60  1  0
 16 61  1  0
 16 62  1  0
 24 63  1  0
 25 64  1  0
 26 65  1  0
 27 66  1  0
 30 67  1  0
 31 68  1  0
 32 69  1  0
 33 70  1  0
 34 71  1  0
 35 72  1  0
 37 73  1  0
 38 74  1  0
 38 75  1  0
 40 76  1  0
 43 77  1  0
 44 78  1  0
 45 79  1  0
 48 80  1  0
 54 81  1  0
 54 82  1  0
M  END
> <Name>
Molecule

> <Clean Energy>
166.599

> <From>
www.bindingDB.org

> <BindingDB Reactant_set_id>
253404

> <Ligand InChI>
InChI=1S/C38H27Br2F4N4O5PS/c39-31-18-25-12-10-22(14-27(25)16-29(31)37(41,42)54(50,51)52)20-36(35(49)24-6-2-1-3-7-24,48-34-9-5-4-8-33(34)46-47-48)21-23-11-13-26-19-32(40)30(17-28(26)15-23)38(43,44)55(4
5)53/h1-19H,20-21,45H2,(H2,50,51,52)

> <Ligand InChI Key>
XZBONGJVYMLTQL-UHFFFAOYSA-N

> <BindingDB MonomerID>
124216

> <BindingDB Ligand Name>
({7-[2-({7-[(aminosulfinyl)difluoromethyl]-6-bromonaphthalen-2-yl}methyl)-2-(1H-1,2,3-benzotriazol-1-yl)-3-oxo-3-phenylpropyl]-3-bromonaphthalen-2-yl}difluoromethyl)phosphonic acid (10j)

> <Target Name>
Tyrosine-protein phosphatase non-receptor type 1

> <Target Source Organism According to Curator or DataSource>
Homo sapiens

> <IC50 (nM)>
4

> <Curation/DataSource>
Curated from the literature by BindingDB

> <Article DOI>
10.1002/cmdc.201100077

> <BindingDB Entry DOI>
10.7270/Q2XW4HGZ

> <PMID>
21506278

> <PubChem AID>
aid1800514

> <Authors>
Patel, D; Jain, M; Shah, SR; Bahekar, R; Jadav, P; Darji, B; Siriki, Y; Bandyopadhyay, D; Joharapurkar, A; Kshirsagar, S; Patel, H; Shaikh, M; Sairam, KV; Patel, P

> <Institution>
Zydus Research Centre

> <Link to Ligand in BindingDB>
http://www.bindingdb.org/bind/chemsearch/marvin/MolStructure.jsp?monomerid=124216

> <Link to Ligand-Target Pair in BindingDB>
http://www.bindingdb.org/jsp/dbsearch/PrimarySearch_ki.jsp?energyterm=kJ/mole&tag=pol&polymerid=2622&target=Tyrosine-protein+phosphatase+non-receptor+type+1&column=ki&startPg=0&Increment=50&submit=Sea
rch
http://www.bindingdb.org/jsp/dbsearch/PrimarySearch_ki.jsp?energyterm=kJ/mole&tag=r21&monomerid=124216&enzyme=Tyrosine-protein+phosphatase+non-receptor+type+1&column=ki&startPg=0&Increment=50&submit=S
earch

> <PubChem CID of Ligand>
53361712

> <PubChem SID of Ligand>
225150608

> <Number of Protein Chains in Target (bigger than 1 implies a multichain complex)>
1

> <BindingDB Target Chain Sequence>
MEMEKEFEQIDKSGSWAAIYQDIRHEASDFPCRVAKLPKNKNRNRYRDVSPFDHSRIKLHQEDNDYINASLIKMEEAQRSYILTQGPLPNTCGHFWEMVWEQKSRGVVMLNRVMEKGSLKCAQYWPQKEEKEMIFEDTNLKLTLISEDIKSYYTVRQLELENLTTQETREILHFHYTTWPDFGVPESPASFLNFLFKVRE
SGSLSPEHGPVVVHCSAGIGRSGTFCLADTCLLLMDKRKDPSSVDIKKVLLEMRKFRMGLIQTADQLRFSYLAVIEGAKFIMGDSSVQDQWKELSHEDLEPPPEHIPPPPRPPKRILEPHNGKCREFFPNHQWVKEETQEDKDCPIKEEKGSPLNAAPYGIESMSQDTEVRSRVVGGSLRGAQAASPAKGEPSLPEKDED
HALSYWKPFLVNMCVATVLTAGAYLCYRFLFNSNT

> <PDB ID(s) of Target Chain>
1BZJ,1G7G,1GFY,1JF7,1KAK,1KAV,1LQF,1NL9,1NNY,1NO6,1NZ7,1OEM,1OEO,1OES,1OET,1OEU,1OEV,1ONY,1ONZ,1PH0,1PXH,1PYN,1Q1M,1Q6J,1Q6M,1Q6N,1Q6P,1Q6S,1Q6T,1QXK,1SUG,1T48,1T49,1T4J,1WAX,1XBO,2AZR,2B07,2BGD,2BGE,
2CM2,2CM3,2CM7,2CM8,2CMA,2CMB,2CMC,2CNE,2CNF,2CNG,2CNH,2CNI,2F6T,2F6V,2F6W,2F6Y,2F6Z,2F70,2F71,2FJN,2H4G,2H4K,2HB1,2HNP,2HNQ,2QBP,2QBQ,2QBR,2QBS,2VEU,2VEV,2VEW,2VEX,2VEY,2ZMM,2ZN7,3A5J,3CWE,3D9C,3EAX,
3EB1,3EU0,3I7Z,3I80,3SME,4BJO,4I8N,4QBW,4Y14,5K9V,5K9W,5KA0,5KA1,5T19,6B90,6NTP,6W30,7KEY,7KLX,7LFO,7MN9,7MNA,8DU7,8G65,8G67,8G68,8G69,8G6A,8SKL

> <UniProt (SwissProt) Recommended Name of Target Chain>
Tyrosine-protein phosphatase non-receptor type 1

> <UniProt (SwissProt) Entry Name of Target Chain>
PTN1_HUMAN

> <UniProt (SwissProt) Primary ID of Target Chain>
P18031

> <UniProt (SwissProt) Secondary ID(s) of Target Chain>
Q5TGD8 Q9BQV9 Q9NQQ4

$$$$
Molecule
  SciTegic10242319433D

 80 86  0  0  0  0            999 V2000
   -1.8108    3.7827    0.3916 C   0  0
   -3.0244    3.1908    0.7085 C   0  0
   -3.1068    1.8267    0.9585 C   0  0
   -1.9650    1.1195    0.9280 N   0  0
   -0.7692    1.6404    0.6120 C   0  0
   -0.6753    2.9924    0.3235 C   0  0
    0.3833    0.8442    0.5191 C   0  0
    1.6116    1.3949    0.1334 C   0  0
    1.6770    2.7617   -0.1423 C   0  0
    0.5394    3.5507   -0.0430 C   0  0
    3.3092    3.6031   -0.6714 Br  0  0
    2.9151    0.5443   -0.0156 C   0  0
    3.8189    0.9939    0.9249 F   0  0
    2.7591   -1.1091    0.1299 P   0  0
    3.4678    0.8047   -1.2548 F   0  0
   -4.5462    1.0757    1.2314 C   0  0
   -5.7637    0.9798    0.0322 C   0  0  1  0  0  0
   -7.0412    0.1965    0.6812 C   0  0
   -6.1642    2.5201   -0.2728 N   0  0
   -5.2554    3.3476   -0.6284 N   0  0
   -5.6658    4.5417   -0.7743 N   0  0
   -6.9616    4.5286   -0.5176 C   0  0
   -7.2951    3.2374   -0.2147 C   0  0
   -8.6362    2.9562    0.0863 C   0  0
   -9.5606    3.9982    0.0718 C   0  0
   -9.1792    5.3080   -0.2283 C   0  0
   -7.8486    5.5888   -0.5348 C   0  0
   -7.4439   -1.2395    0.5078 C   0  0
   -7.8533    0.8476    1.3326 O   0  0
   -8.8006   -1.5487    0.5523 C   0  0
   -9.2368   -2.8608    0.3937 C   0  0
   -8.3174   -3.8864    0.2120 C   0  0
   -6.9625   -3.5902    0.1937 C   0  0
   -6.5425   -2.2745    0.3391 C   0  0
    4.1711   -1.7392   -0.0623 O   0  0
    1.9160   -1.5942   -0.8493 O   0  0
    2.2226   -1.4923    1.5275 O   0  0
   -5.1111    0.2174   -1.3738 C   0  0
   -4.0534   -1.0012   -1.1615 C   0  0
   -4.2666   -2.3318   -1.0575 N   0  0
   -3.2794   -3.1882   -0.6996 C   0  0
   -2.0177   -2.6838   -0.4210 C   0  0
   -1.7440   -1.3593   -0.6186 C   0  0
   -2.7686   -0.5364   -1.0076 C   0  0
   -3.4521   -4.5754   -0.5451 C   0  0
   -2.4060   -5.3931   -0.0683 C   0  0
   -1.1926   -4.8076    0.2971 C   0  0
   -1.0001   -3.4626    0.0832 C   0  0
    0.2476   -5.7388    1.1234 Br  0  0
   -2.5914   -6.9227    0.0876 C   0  0
   -1.3645   -7.8791   -0.9486 S   0  0
   -3.8595   -7.2866   -0.3076 F   0  0
   -2.3771   -7.2807    1.4018 F   0  0
   -1.5929   -9.5850   -0.7130 N   0  0
    0.0925   -7.5865   -0.6517 O   0  0
   -1.7514    4.8539    0.1989 H   0  0
   -3.9244    3.8034    0.7621 H   0  0
    0.3210   -0.2190    0.7509 H   0  0
    0.6017    4.6181   -0.2549 H   0  0
   -4.3065    0.0482    1.5050 H   0  0
   -4.9976    1.5834    2.0838 H   0  0
   -8.9493    1.9403    0.3272 H   0  0
  -10.6053    3.7866    0.2999 H   0  0
   -9.9196    6.1079   -0.2228 H   0  0
   -7.5219    6.6000   -0.7775 H   0  0
   -9.5293   -0.7543    0.7132 H   0  0
  -10.3034   -3.0845    0.4120 H   0  0
   -8.6577   -4.9142    0.0851 H   0  0
   -6.2300   -4.3872    0.0657 H   0  0
   -5.4757   -2.0521    0.3197 H   0  0
    4.5393   -1.4905   -1.0137 H   0  0
    2.8882   -1.1505    2.2642 H   0  0
   -5.9499   -0.1779   -1.9468 H   0  0
   -4.6048    0.9882   -1.9548 H   0  0
   -0.7376   -0.9678   -0.4707 H   0  0
   -2.5591    0.5157   -1.2003 H   0  0
   -4.4114   -5.0268   -0.7984 H   0  0
   -0.0357   -3.0101    0.3143 H   0  0
   -2.5864   -9.8559   -1.0038 H   0  0
   -1.4457   -9.8259    0.3192 H   0  0
  1  2  4  0
  1  6  4  0
  2  3  4  0
  3  4  4  0
  4  5  4  0
  5  7  4  0
  6  5  4  0
  6 10  4  0
  7  8  4  0
  8  9  4  0
  9 10  4  0
  9 11  1  0
  8 12  1  0
 12 13  1  0
 12 14  1  0
 12 15  1  0
  3 16  1  0
 16 17  1  0
 17 18  1  0
 17 19  1  0
 19 20  4  0
 19 23  4  0
 20 21  4  0
 21 22  4  0
 22 27  4  0
 22 23  4  0
 23 24  4  0
 24 25  4  0
 25 26  4  0
 26 27  4  0
 18 28  1  0
 18 29  2  0
 28 30  4  0
 28 34  4  0
 30 31  4  0
 31 32  4  0
 32 33  4  0
 33 34  4  0
 14 35  1  0
 14 36  2  0
 14 37  1  0
 17 38  1  0
 38 39  1  0
 39 40  4  0
 39 44  4  0
 40 41  4  0
 42 43  4  0
 43 44  4  0
 41 45  4  0
 41 42  4  0
 42 48  4  0
 45 46  4  0
 46 47  4  0
 47 48  4  0
 47 49  1  0
 46 50  1  0
 50 51  1  0
 50 52  1  0
 50 53  1  0
 51 54  1  0
 51 55  2  0
  1 56  1  0
  2 57  1  0
  7 58  1  0
 10 59  1  0
 16 60  1  0
 16 61  1  0
 24 62  1  0
 25 63  1  0
 26 64  1  0
 27 65  1  0
 30 66  1  0
 31 67  1  0
 32 68  1  0
 33 69  1  0
 34 70  1  0
 35 71  1  0
 37 72  1  0
 38 73  1  0
 38 74  1  0
 43 75  1  0
 44 76  1  0
 45 77  1  0
 48 78  1  0
 54 79  1  0
 54 80  1  0
M  END
> <Name>
Molecule

> <Clean Energy>
151.783

> <From>
www.bindingDB.org

> <BindingDB Reactant_set_id>
253409

> <Ligand InChI>
InChI=1S/C36H25Br2F4N6O5PS/c37-27-14-21-10-12-23(44-30(21)16-25(27)35(39,40)54(50,51)52)18-34(33(49)20-6-2-1-3-7-20,48-32-9-5-4-8-29(32)46-47-48)19-24-13-11-22-15-28(38)26(17-31(22)45-24)36(41,42)55(4
3)53/h1-17H,18-19,43H2,(H2,50,51,52)

> <Ligand InChI Key>
UBRICIIBZMGNGX-UHFFFAOYSA-N

> <BindingDB MonomerID>
124221

> <BindingDB Ligand Name>
({2-[2-({7-[(aminosulfinyl)difluoromethyl]-6-bromoquinolin-2-yl}methyl)-2-(1H-1,2,3-benzotriazol-1-yl)-3-oxo-3-phenylpropyl]-6-bromoquinolin-7-yl}difluoromethyl)phosphonic acid (10o)

> <Target Name>
Tyrosine-protein phosphatase non-receptor type 1

> <Target Source Organism According to Curator or DataSource>
Homo sapiens

> <IC50 (nM)>
4

> <Curation/DataSource>
Curated from the literature by BindingDB

> <Article DOI>
10.1002/cmdc.201100077

> <BindingDB Entry DOI>
10.7270/Q2XW4HGZ

> <PMID>
21506278

> <PubChem AID>
aid1800514

> <Authors>
Patel, D; Jain, M; Shah, SR; Bahekar, R; Jadav, P; Darji, B; Siriki, Y; Bandyopadhyay, D; Joharapurkar, A; Kshirsagar, S; Patel, H; Shaikh, M; Sairam, KV; Patel, P

> <Institution>
Zydus Research Centre

> <Link to Ligand in BindingDB>
http://www.bindingdb.org/bind/chemsearch/marvin/MolStructure.jsp?monomerid=124221

> <Link to Ligand-Target Pair in BindingDB>
http://www.bindingdb.org/jsp/dbsearch/PrimarySearch_ki.jsp?energyterm=kJ/mole&tag=pol&polymerid=2622&target=Tyrosine-protein+phosphatase+non-receptor+type+1&column=ki&startPg=0&Increment=50&submit=Sea
rch
http://www.bindingdb.org/jsp/dbsearch/PrimarySearch_ki.jsp?energyterm=kJ/mole&tag=r21&monomerid=124221&enzyme=Tyrosine-protein+phosphatase+non-receptor+type+1&column=ki&startPg=0&Increment=50&submit=S
earch

> <PubChem CID of Ligand>
86766294

> <PubChem SID of Ligand>
225150613

> <Number of Protein Chains in Target (bigger than 1 implies a multichain complex)>
1

> <BindingDB Target Chain Sequence>
MEMEKEFEQIDKSGSWAAIYQDIRHEASDFPCRVAKLPKNKNRNRYRDVSPFDHSRIKLHQEDNDYINASLIKMEEAQRSYILTQGPLPNTCGHFWEMVWEQKSRGVVMLNRVMEKGSLKCAQYWPQKEEKEMIFEDTNLKLTLISEDIKSYYTVRQLELENLTTQETREILHFHYTTWPDFGVPESPASFLNFLFKVRE
SGSLSPEHGPVVVHCSAGIGRSGTFCLADTCLLLMDKRKDPSSVDIKKVLLEMRKFRMGLIQTADQLRFSYLAVIEGAKFIMGDSSVQDQWKELSHEDLEPPPEHIPPPPRPPKRILEPHNGKCREFFPNHQWVKEETQEDKDCPIKEEKGSPLNAAPYGIESMSQDTEVRSRVVGGSLRGAQAASPAKGEPSLPEKDED
HALSYWKPFLVNMCVATVLTAGAYLCYRFLFNSNT

> <PDB ID(s) of Target Chain>
1BZJ,1G7G,1GFY,1JF7,1KAK,1KAV,1LQF,1NL9,1NNY,1NO6,1NZ7,1OEM,1OEO,1OES,1OET,1OEU,1OEV,1ONY,1ONZ,1PH0,1PXH,1PYN,1Q1M,1Q6J,1Q6M,1Q6N,1Q6P,1Q6S,1Q6T,1QXK,1SUG,1T48,1T49,1T4J,1WAX,1XBO,2AZR,2B07,2BGD,2BGE,
2CM2,2CM3,2CM7,2CM8,2CMA,2CMB,2CMC,2CNE,2CNF,2CNG,2CNH,2CNI,2F6T,2F6V,2F6W,2F6Y,2F6Z,2F70,2F71,2FJN,2H4G,2H4K,2HB1,2HNP,2HNQ,2QBP,2QBQ,2QBR,2QBS,2VEU,2VEV,2VEW,2VEX,2VEY,2ZMM,2ZN7,3A5J,3CWE,3D9C,3EAX,
3EB1,3EU0,3I7Z,3I80,3SME,4BJO,4I8N,4QBW,4Y14,5K9V,5K9W,5KA0,5KA1,5T19,6B90,6NTP,6W30,7KEY,7KLX,7LFO,7MN9,7MNA,8DU7,8G65,8G67,8G68,8G69,8G6A,8SKL

> <UniProt (SwissProt) Recommended Name of Target Chain>
Tyrosine-protein phosphatase non-receptor type 1

> <UniProt (SwissProt) Entry Name of Target Chain>
PTN1_HUMAN

> <UniProt (SwissProt) Primary ID of Target Chain>
P18031

> <UniProt (SwissProt) Secondary ID(s) of Target Chain>
Q5TGD8 Q9BQV9 Q9NQQ4

$$$$
Molecule
  SciTegic10242319433D

 62 62  0  0  0  0            999 V2000
   -1.9955   -2.3310    0.0000 C   0  0
   -3.0790   -1.5554    0.0001 C   0  0
   -2.4724   -3.6977    0.0003 C   0  0
   -4.2197   -2.3367    0.0003 O   0  0
   -3.8014   -3.6502    0.0004 C   0  0
   -0.5835   -1.8368   -0.0002 C   0  0
   -3.0695   -0.1653   -0.0001 O   0  0
   -0.3811   -0.6182   -0.0003 O   0  0
   -1.7021   -4.8558    0.0003 O   0  0
   -4.7157   -4.8430    0.0007 C   0  0
   -6.0783   -4.4016    0.0008 O   0  0
    0.6147   -2.7820   -0.0002 C   0  0
    1.9424   -1.9482   -0.0003 C   0  0
   17.3297   -1.9835   -0.0001 C   0  0
   16.0713   -2.8835   -0.0002 C   0  0
    5.8006   -2.9023   -0.0003 C   0  0
    7.0970   -2.0193   -0.0003 C   0  0
    8.3861   -2.9098   -0.0003 C   0  0
    9.6746   -2.0208   -0.0003 C   0  0
   10.9619   -2.9075   -0.0004 C   0  0
   12.2422   -2.0154   -0.0003 C   0  0
   13.5247   -2.8992   -0.0004 C   0  0
   14.7946   -2.0036   -0.0003 C   0  0
    3.2086   -2.8705   -0.0002 C   0  0
    4.5164   -2.0024   -0.0003 C   0  0
   18.6012   -2.8587    0.0000 C   0  0
   -2.5722    0.1819    0.8570 H   0  0
   -1.0960   -4.8736   -0.8570 H   0  0
   -4.5289   -5.4437   -0.8895 H   0  0
   -4.5286   -5.4435    0.8908 H   0  0
   -6.2592   -3.8227    0.8580 H   0  0
    0.5811   -3.4101    0.8900 H   0  0
    0.5810   -3.4103   -0.8903 H   0  0
    1.9640   -1.3196   -0.8904 H   0  0
    1.9641   -1.3194    0.8898 H   0  0
   17.3242   -1.3544   -0.8902 H   0  0
   17.3240   -1.3545    0.8901 H   0  0
   16.0768   -3.5125   -0.8904 H   0  0
   16.0767   -3.5126    0.8899 H   0  0
    5.7964   -3.5314    0.8899 H   0  0
    5.7964   -3.5314   -0.8904 H   0  0
    7.0991   -1.3902   -0.8904 H   0  0
    7.0991   -1.3902    0.8898 H   0  0
    8.3859   -3.5389    0.8898 H   0  0
    8.3858   -3.5389   -0.8905 H   0  0
    9.6744   -1.3917   -0.8905 H   0  0
    9.6744   -1.3918    0.8898 H   0  0
   10.9636   -3.5367    0.8897 H   0  0
   10.9636   -3.5366   -0.8905 H   0  0
   12.2406   -1.3863   -0.8905 H   0  0
   12.2406   -1.3864    0.8898 H   0  0
   13.5281   -3.5283    0.8897 H   0  0
   13.5281   -3.5282   -0.8905 H   0  0
   14.7911   -1.3746    0.8899 H   0  0
   14.7912   -1.3745   -0.8904 H   0  0
    3.1949   -3.4994    0.8899 H   0  0
    3.1949   -3.4995   -0.8904 H   0  0
    4.5243   -1.3734    0.8898 H   0  0
    4.5243   -1.3734   -0.8904 H   0  0
   19.4835   -2.2187    0.0001 H   0  0
   18.6097   -3.4881   -0.8899 H   0  0
   18.6096   -3.4882    0.8898 H   0  0
  2  1  2  0
  3  1  1  0
  4  2  1  0
  5  3  2  0
  6  1  1  0
  7  2  1  0
  8  6  2  0
  9  3  1  0
  5 10  1  0
 11 10  1  0
 12  6  1  0
 13 12  1  0
 14 15  1  0
 15 23  1  0
 16 25  1  0
 17 16  1  0
 18 17  1  0
 19 18  1  0
 20 19  1  0
 21 20  1  0
 22 21  1  0
 23 22  1  0
 24 13  1  0
 25 24  1  0
 26 14  1  0
  5  4  1  0
  7 27  1  0
  9 28  1  0
 10 29  1  0
 10 30  1  0
 11 31  1  0
 12 32  1  0
 12 33  1  0
 13 34  1  0
 13 35  1  0
 14 36  1  0
 14 37  1  0
 15 38  1  0
 15 39  1  0
 16 40  1  0
 16 41  1  0
 17 42  1  0
 17 43  1  0
 18 44  1  0
 18 45  1  0
 19 46  1  0
 19 47  1  0
 20 48  1  0
 20 49  1  0
 21 50  1  0
 21 51  1  0
 22 52  1  0
 22 53  1  0
 23 54  1  0
 23 55  1  0
 24 56  1  0
 24 57  1  0
 25 58  1  0
 25 59  1  0
 26 60  1  0
 26 61  1  0
 26 62  1  0
M  END
> <Name>
Molecule

> <Clean Energy>
19.983

> <From>
www.bindingDB.org

> <BindingDB Reactant_set_id>
50838429

> <Ligand InChI>
InChI=1S/C21H36O5/c1-2-3-4-5-6-7-8-9-10-11-12-13-14-15-17(23)19-20(24)18(16-22)26-21(19)25/h22,24-25H,2-16H2,1H3

> <Ligand InChI Key>
BKBKOAWPAIKUCJ-UHFFFAOYSA-N

> <BindingDB MonomerID>
50104694

> <BindingDB Ligand Name>
(R)-4-hydroxy-5-(hydroxymethyl)-3-palmitoylfuran-2(5H)-one::(R)-5-Ethyl-3-hexadecanoyl-4-methyl-5H-furan-2-oneo::3-Hexadecanoyl-4-hydroxy-5-hydroxymethyl-5H-furan-2-one::CHEMBL108441::RK-682

> <Target Name>
Tyrosine-protein phosphatase non-receptor type 1

> <Target Source Organism According to Curator or DataSource>
Homo sapiens

> <IC50 (nM)>
4.5

> <Curation/DataSource>
ChEMBL

> <Article DOI>
10.1016/j.bmcl.2006.02.053

> <BindingDB Entry DOI>
10.7270/Q29024KF

> <PMID>
16545563

> <Authors>
Na, M; Oh, WK; Kim, YH; Cai, XF; Kim, S; Kim, BY; Ahn, JS

> <Institution>
Korea Research Institute of Bioscience and Biotechnology

> <Link to Ligand in BindingDB>
http://www.bindingdb.org/bind/chemsearch/marvin/MolStructure.jsp?monomerid=50104694

> <Link to Ligand-Target Pair in BindingDB>
http://www.bindingdb.org/jsp/dbsearch/PrimarySearch_ki.jsp?energyterm=kJ/mole&tag=pol&polymerid=2622&target=Tyrosine-protein+phosphatase+non-receptor+type+1&column=ki&startPg=0&Increment=50&submit=Sea
rch
http://www.bindingdb.org/jsp/dbsearch/PrimarySearch_ki.jsp?energyterm=kJ/mole&tag=r21&monomerid=50104694&enzyme=Tyrosine-protein+phosphatase+non-receptor+type+1&column=ki&startPg=0&Increment=50&submit
=Search

> <PubChem CID of Ligand>
91931765

> <PubChem SID of Ligand>
104000617

> <ChEMBL ID of Ligand>
CHEMBL108441

> <ZINC ID of Ligand>
ZINC17920631

> <Number of Protein Chains in Target (bigger than 1 implies a multichain complex)>
1

> <BindingDB Target Chain Sequence>
MEMEKEFEQIDKSGSWAAIYQDIRHEASDFPCRVAKLPKNKNRNRYRDVSPFDHSRIKLHQEDNDYINASLIKMEEAQRSYILTQGPLPNTCGHFWEMVWEQKSRGVVMLNRVMEKGSLKCAQYWPQKEEKEMIFEDTNLKLTLISEDIKSYYTVRQLELENLTTQETREILHFHYTTWPDFGVPESPASFLNFLFKVRE
SGSLSPEHGPVVVHCSAGIGRSGTFCLADTCLLLMDKRKDPSSVDIKKVLLEMRKFRMGLIQTADQLRFSYLAVIEGAKFIMGDSSVQDQWKELSHEDLEPPPEHIPPPPRPPKRILEPHNGKCREFFPNHQWVKEETQEDKDCPIKEEKGSPLNAAPYGIESMSQDTEVRSRVVGGSLRGAQAASPAKGEPSLPEKDED
HALSYWKPFLVNMCVATVLTAGAYLCYRFLFNSNT

> <PDB ID(s) of Target Chain>
1BZJ,1G7G,1GFY,1JF7,1KAK,1KAV,1LQF,1NL9,1NNY,1NO6,1NZ7,1OEM,1OEO,1OES,1OET,1OEU,1OEV,1ONY,1ONZ,1PH0,1PXH,1PYN,1Q1M,1Q6J,1Q6M,1Q6N,1Q6P,1Q6S,1Q6T,1QXK,1SUG,1T48,1T49,1T4J,1WAX,1XBO,2AZR,2B07,2BGD,2BGE,
2CM2,2CM3,2CM7,2CM8,2CMA,2CMB,2CMC,2CNE,2CNF,2CNG,2CNH,2CNI,2F6T,2F6V,2F6W,2F6Y,2F6Z,2F70,2F71,2FJN,2H4G,2H4K,2HB1,2HNP,2HNQ,2QBP,2QBQ,2QBR,2QBS,2VEU,2VEV,2VEW,2VEX,2VEY,2ZMM,2ZN7,3A5J,3CWE,3D9C,3EAX,
3EB1,3EU0,3I7Z,3I80,3SME,4BJO,4I8N,4QBW,4Y14,5K9V,5K9W,5KA0,5KA1,5T19,6B90,6NTP,6W30,7KEY,7KLX,7LFO,7MN9,7MNA,8DU7,8G65,8G67,8G68,8G69,8G6A,8SKL

> <UniProt (SwissProt) Recommended Name of Target Chain>
Tyrosine-protein phosphatase non-receptor type 1

> <UniProt (SwissProt) Entry Name of Target Chain>
PTN1_HUMAN

> <UniProt (SwissProt) Primary ID of Target Chain>
P18031

> <UniProt (SwissProt) Secondary ID(s) of Target Chain>
Q5TGD8 Q9BQV9 Q9NQQ4

$$$$
Molecule
  SciTegic10242319433D

 97103  0  0  0  0            999 V2000
    0.7530   -6.5559   -0.2572 C   0  0  2  0  0  0
    2.1892   -7.1164    0.2576 C   0  0
    2.6580   -8.3006   -0.4423 C   0  0
    3.8553   -8.8147   -0.3235 C   0  0
    4.8357   -8.2090    0.4759 C   0  0
    4.4964   -7.1188    1.1990 C   0  0
    3.0660   -6.5262    1.0927 C   0  0
    1.3598   -5.7561   -1.5733 C   0  0
    2.4689   -4.5551   -1.2022 C   0  0
    3.7509   -4.6909   -1.5758 C   0  0
    4.7889   -3.6791   -1.1825 C   0  0
    4.4722   -2.6104   -0.4458 C   0  0
    3.0742   -2.4321   -0.0421 C   0  0
    2.1415   -3.3295   -0.3871 C   0  0
    5.5392   -1.5622   -0.0184 C   0  0
    7.1169   -2.1409   -0.0619 P   0  0
    7.2714   -3.3152    0.9327 O   0  0
    5.2328   -1.0904    1.2461 F   0  0
    5.4501   -0.4872   -0.8778 F   0  0
    7.9835   -1.1310    0.3095 O   0  0
    7.4896   -2.6104   -1.4924 O   0  0
   -0.1815   -5.4995    0.4300 C   0  0
   -0.6867   -4.5428   -0.3702 C   0  0
   -1.6795   -3.5865    0.0808 C   0  0
   -2.1699   -3.6966    1.3073 C   0  0
   -1.6781   -4.7696    2.1961 C   0  0
   -0.7251   -5.6231    1.7911 C   0  0
    6.1814   -8.8976    0.3670 C   0  0
    6.0822  -10.2116    0.1533 C   0  0
    7.2429  -11.0514    0.0148 C   0  0
    7.5922   -8.2751    0.3559 C   0  0
    8.6482   -9.1009    0.2325 C   0  0
    8.4535  -10.5200    0.0418 C   0  0
    9.5968  -11.3577   -0.1055 C   0  0
   10.8006  -10.8062   -0.1008 C   0  0
   11.0005   -9.3726    0.0732 C   0  0
    9.9811   -8.5961    0.1994 N   0  0
   12.4152   -8.7289    0.1143 C   0  0  1  0  0  0
   13.7456   -9.4713   -0.4492 C   0  0
   12.3073   -7.4018   -0.4241 O   0  0
   13.5205   -6.6712   -0.1827 C   0  0
   14.3699  -10.7592    0.2766 C   0  0
   15.7814  -10.9894   -0.2883 C   0  0
   13.6213  -12.0894    0.0905 C   0  0
    7.9329   -6.6696    0.4458 P   0  0
    8.6629   -6.4055    1.5786 O   0  0
    6.6991   -5.7638    0.3718 O   0  0
    8.8359   -6.3332   -0.7779 O   0  0
   -0.1784   -7.8555   -0.5643 N   0  0
   -0.6192  -10.0211   -0.4035 N   0  0
    0.2738   -9.1832   -0.4846 N   0  0
   -1.8259   -9.3880   -0.4141 C   0  0
   -1.6155   -8.0215   -0.5315 C   0  0
   -2.6406   -7.1727   -0.5685 C   0  0
   -4.0125   -7.7413   -0.4746 C   0  0
   -4.1907   -9.0636   -0.3491 C   0  0
   -3.0242   -9.9507   -0.3173 C   0  0
    1.9603   -8.7974   -1.1164 H   0  0
    4.0961   -9.7339   -0.8576 H   0  0
    5.2294   -6.6544    1.8586 H   0  0
    2.7779   -5.6540    1.6794 H   0  0
    1.8498   -6.4848   -2.2190 H   0  0
    0.5274   -5.2981   -2.1075 H   0  0
    4.0444   -5.5520   -2.1762 H   0  0
    5.8208   -3.8195   -1.5043 H   0  0
    2.7904   -1.5591    0.5456 H   0  0
    1.1118   -3.1685   -0.0679 H   0  0
    7.0501   -2.9833    1.9040 H   0  0
    6.8384   -3.3786   -1.7899 H   0  0
   -0.3353   -4.4842   -1.4004 H   0  0
   -2.0176   -2.7881   -0.5798 H   0  0
   -2.9313   -3.0000    1.6581 H   0  0
   -2.0964   -4.8695    3.1976 H   0  0
   -0.3582   -6.3989    2.4630 H   0  0
    5.0923  -10.6621    0.0814 H   0  0
    7.1238  -12.1274   -0.1126 H   0  0
    9.4821  -12.4356   -0.2202 H   0  0
   11.6728  -11.4467   -0.2317 H   0  0
   12.6155   -8.5776    1.1750 H   0  0
   13.5155   -9.7774   -1.4697 H   0  0
   14.5328   -8.7175   -0.4642 H   0  0
   13.4283   -5.6664   -0.5948 H   0  0
   14.3553   -7.1841   -0.6605 H   0  0
   13.6997   -6.6081    0.8907 H   0  0
   14.4515  -10.5521    1.3437 H   0  0
   16.2272  -11.8612    0.1906 H   0  0
   16.3989  -10.1127   -0.0930 H   0  0
   15.7199  -11.1579   -1.3635 H   0  0
   14.1440  -12.8795    0.6296 H   0  0
   13.5810  -12.3389   -0.9698 H   0  0
   12.6076  -11.9939    0.4797 H   0  0
    6.2013   -5.9234   -0.5389 H   0  0
    9.7158   -6.9043   -0.7317 H   0  0
   -2.4805   -6.0988   -0.6643 H   0  0
   -4.8772   -7.0786   -0.5080 H   0  0
   -5.1964   -9.4766   -0.2713 H   0  0
   -3.1364  -11.0304   -0.2180 H   0  0
 12 15  1  0
  6  7  1  0
 15 16  1  0
  5 28  1  0
  7  2  2  0
 28 29  2  0
 16 17  1  0
 29 30  1  0
 30 33  2  0
  2  3  1  0
 32 31  2  0
 31 28  1  0
 15 18  1  0
  1  8  1  0
 32 33  1  0
 15 19  1  0
 33 34  1  0
 34 35  2  0
 16 20  2  0
 35 36  1  0
  8  9  1  0
 36 37  2  0
 37 32  1  0
 16 21  1  0
 36 38  1  0
  3  4  2  0
 38 39  1  0
  1 22  1  0
 38 40  1  0
  9 10  2  0
 40 41  1  0
 22 23  2  0
 39 42  1  0
 42 43  1  0
 23 24  1  0
 42 44  1  0
 10 11  1  0
 31 45  1  0
 24 25  2  0
 45 46  2  0
  4  5  1  0
 45 47  1  0
 25 26  1  0
 45 48  1  0
 11 12  2  0
 26 27  2  0
 27 22  1  0
  1  2  1  0
 12 13  1  0
  5  6  2  0
 13 14  2  0
 14  9  1  0
 49 53  1  0
 52 50  1  0
 50 51  2  0
 51 49  1  0
 52 53  1  0
 53 54  2  0
 54 55  1  0
 55 56  2  0
 56 57  1  0
 57 52  2  0
 49  1  1  0
  3 58  1  0
  4 59  1  0
  6 60  1  0
  7 61  1  0
  8 62  1  0
  8 63  1  0
 10 64  1  0
 11 65  1  0
 13 66  1  0
 14 67  1  0
 17 68  1  0
 21 69  1  0
 23 70  1  0
 24 71  1  0
 25 72  1  0
 26 73  1  0
 27 74  1  0
 29 75  1  0
 30 76  1  0
 34 77  1  0
 35 78  1  0
 38 79  1  0
 39 80  1  0
 39 81  1  0
 41 82  1  0
 41 83  1  0
 41 84  1  0
 42 85  1  0
 43 86  1  0
 43 87  1  0
 43 88  1  0
 44 89  1  0
 44 90  1  0
 44 91  1  0
 47 92  1  0
 48 93  1  0
 54 94  1  0
 55 95  1  0
 56 96  1  0
 57 97  1  0
M  END
> <Name>
Molecule

> <Clean Energy>
160.216

> <From>
www.bindingDB.org

> <BindingDB Reactant_set_id>
50529039

> <Ligand InChI>
InChI=1S/C42H40F2N4O7P2/c1-27(2)25-38(55-3)36-24-18-30-17-23-34(40(39(30)45-36)56(49,50)51)29-15-21-32(22-16-29)41(31-9-5-4-6-10-31,48-37-12-8-7-11-35(37)46-47-48)26-28-13-19-33(20-14-28)42(43,44)57(5
2,53)54/h4-24,27,38H,25-26H2,1-3H3,(H2,49,50,51)(H2,52,53,54)

> <Ligand InChI Key>
QMJPTLBHDYKKJF-UHFFFAOYSA-N

> <BindingDB MonomerID>
50308854

> <BindingDB Ligand Name>
CHEMBL590235::[7-(4-{1-Benzotriazol-1-yl-2-[4-(difluoro-phosphono-methyl)-phenyl]-1-phenyl-ethyl}-phenyl)-2-(1-methoxy-3-methyl-butyl)-quinolin-8-yl]-phosphonic acid

> <Target Name>
Tyrosine-protein phosphatase non-receptor type 1

> <Target Source Organism According to Curator or DataSource>
Homo sapiens

> <IC50 (nM)>
5

> <Curation/DataSource>
ChEMBL

> <Article DOI>
10.1016/j.ejmech.2016.05.060

> <BindingDB Entry DOI>
10.7270/Q25Q4Z2D

> <PMID>
27526040

> <Authors>
Meng, G; Zheng, M; Wang, M; Tong, J; Ge, W; Zhang, J; Zheng, A; Li, J; Gao, L; Li, J

> <Institution>
Xi'an Jiaotong University

> <Link to Ligand in BindingDB>
http://www.bindingdb.org/bind/chemsearch/marvin/MolStructure.jsp?monomerid=50308854

> <Link to Ligand-Target Pair in BindingDB>
http://www.bindingdb.org/jsp/dbsearch/PrimarySearch_ki.jsp?energyterm=kJ/mole&tag=pol&polymerid=2622&target=Tyrosine-protein+phosphatase+non-receptor+type+1&column=ki&startPg=0&Increment=50&submit=Sea
rch
http://www.bindingdb.org/jsp/dbsearch/PrimarySearch_ki.jsp?energyterm=kJ/mole&tag=r21&monomerid=50308854&enzyme=Tyrosine-protein+phosphatase+non-receptor+type+1&column=ki&startPg=0&Increment=50&submit
=Search

> <PubChem CID of Ligand>
46229997

> <PubChem SID of Ligand>
104163215

> <ChEMBL ID of Ligand>
CHEMBL590235

> <ZINC ID of Ligand>
ZINC95537348

> <Number of Protein Chains in Target (bigger than 1 implies a multichain complex)>
1

> <BindingDB Target Chain Sequence>
MEMEKEFEQIDKSGSWAAIYQDIRHEASDFPCRVAKLPKNKNRNRYRDVSPFDHSRIKLHQEDNDYINASLIKMEEAQRSYILTQGPLPNTCGHFWEMVWEQKSRGVVMLNRVMEKGSLKCAQYWPQKEEKEMIFEDTNLKLTLISEDIKSYYTVRQLELENLTTQETREILHFHYTTWPDFGVPESPASFLNFLFKVRE
SGSLSPEHGPVVVHCSAGIGRSGTFCLADTCLLLMDKRKDPSSVDIKKVLLEMRKFRMGLIQTADQLRFSYLAVIEGAKFIMGDSSVQDQWKELSHEDLEPPPEHIPPPPRPPKRILEPHNGKCREFFPNHQWVKEETQEDKDCPIKEEKGSPLNAAPYGIESMSQDTEVRSRVVGGSLRGAQAASPAKGEPSLPEKDED
HALSYWKPFLVNMCVATVLTAGAYLCYRFLFNSNT

> <PDB ID(s) of Target Chain>
1BZJ,1G7G,1GFY,1JF7,1KAK,1KAV,1LQF,1NL9,1NNY,1NO6,1NZ7,1OEM,1OEO,1OES,1OET,1OEU,1OEV,1ONY,1ONZ,1PH0,1PXH,1PYN,1Q1M,1Q6J,1Q6M,1Q6N,1Q6P,1Q6S,1Q6T,1QXK,1SUG,1T48,1T49,1T4J,1WAX,1XBO,2AZR,2B07,2BGD,2BGE,
2CM2,2CM3,2CM7,2CM8,2CMA,2CMB,2CMC,2CNE,2CNF,2CNG,2CNH,2CNI,2F6T,2F6V,2F6W,2F6Y,2F6Z,2F70,2F71,2FJN,2H4G,2H4K,2HB1,2HNP,2HNQ,2QBP,2QBQ,2QBR,2QBS,2VEU,2VEV,2VEW,2VEX,2VEY,2ZMM,2ZN7,3A5J,3CWE,3D9C,3EAX,
3EB1,3EU0,3I7Z,3I80,3SME,4BJO,4I8N,4QBW,4Y14,5K9V,5K9W,5KA0,5KA1,5T19,6B90,6NTP,6W30,7KEY,7KLX,7LFO,7MN9,7MNA,8DU7,8G65,8G67,8G68,8G69,8G6A,8SKL

> <UniProt (SwissProt) Recommended Name of Target Chain>
Tyrosine-protein phosphatase non-receptor type 1

> <UniProt (SwissProt) Entry Name of Target Chain>
PTN1_HUMAN

> <UniProt (SwissProt) Primary ID of Target Chain>
P18031

> <UniProt (SwissProt) Secondary ID(s) of Target Chain>
Q5TGD8 Q9BQV9 Q9NQQ4

$$$$
Molecule
  SciTegic10242319433D

100106  0  0  0  0            999 V2000
   28.3444   -6.9806   -1.2600 O   0  0
   27.5635   -6.7079    0.0540 P   0  0
   28.5001   -7.0982    1.2221 O   0  0
   22.4684   -4.4718    1.3709 C   0  0
   21.8886   -5.5694    0.9076 C   0  0
   22.7462   -6.5647    0.1744 C   0  0
   24.0666   -6.3163    0.0041 C   0  0
   24.6570   -5.0348    0.5090 C   0  0
   23.8522   -4.1970    1.1552 C   0  0
   15.4130   -4.3649    1.4381 C   0  0
   15.4266   -5.4683    0.7042 C   0  0
   16.6967   -6.0066    0.2238 C   0  0
   17.8702   -5.4573    0.5059 C   0  0
   17.8331   -4.2399    1.3528 C   0  0
   16.6758   -3.7212    1.7727 C   0  0
   18.6781    1.4675   -1.6062 O   0  0
   19.1956    1.3844   -0.1487 P   0  0
   18.1225    0.7058    0.7553 O   0  0
   19.1012   -1.4590   -0.7595 C   0  0
   18.9045   -2.7365   -1.0661 C   0  0
   20.0227   -3.6475   -1.2419 C   0  0
   21.2618   -3.1334   -1.1874 C   0  0
   21.4868   -1.7032   -0.8478 C   0  0
   20.4407   -0.9148   -0.6069 C   0  0
   20.6301    0.5205   -0.1201 C   0  0
   21.6178    1.1376   -0.8559 F   0  0
   21.0864    0.4661    1.1875 F   0  0
   19.4187    2.6592    0.3298 O   0  0
   19.8028   -5.2234   -1.4036 C   0  0
   19.2944   -6.0357   -0.0256 C   0  0  2  0  0  0
   19.3661   -7.6065   -0.2363 N   0  0
   20.3306   -5.5760    1.1143 C   0  0
   20.2691   -9.5227    0.1499 N   0  0
   20.4776   -8.3081    0.1321 N   0  0
   18.9553   -9.7745   -0.2310 C   0  0
   18.3648   -8.6483   -0.5076 C   0  0
   16.9585   -8.6527   -0.9471 C   0  0
   16.3030   -9.8165   -1.0175 C   0  0
   16.9940  -11.0858   -0.6785 C   0  0
   18.2791  -11.0679   -0.3113 C   0  0
   26.0742   -4.4713    0.3498 C   0  0
   27.2811   -5.0902    0.1504 C   0  0
   27.0932   -2.2083    0.2955 C   0  0
   26.0341   -2.9891    0.4151 C   0  0
   26.4413   -7.4976    0.0935 O   0  0
   28.3701   -2.7816    0.1358 C   0  0
   28.5146   -4.2192    0.0877 C   0  0
   29.6925   -4.7293    0.0273 N   0  0
   30.8726   -3.8928    0.0076 C   0  0
   30.7219   -2.5807    0.0260 C   0  0
   29.4277   -1.9932    0.0928 C   0  0
   32.2804   -4.5493    0.0418 C   0  0  1  0  0  0
   32.1889   -5.8722   -0.4971 O   0  0
   33.3928   -6.5996   -0.2000 C   0  0
   33.6258   -3.7892   -0.4729 C   0  0
   34.2328   -2.4997    0.2769 C   0  0
   35.6485   -2.2538   -0.2705 C   0  0
   33.4796   -1.1677    0.0908 C   0  0
   29.2192   -6.3999   -1.2747 H   0  0
   28.7532   -8.1142    1.1439 H   0  0
   21.8698   -3.7562    1.9345 H   0  0
   22.3067   -7.4817   -0.2181 H   0  0
   24.6990   -7.0475   -0.4994 H   0  0
   24.2656   -3.2629    1.5354 H   0  0
   14.4695   -3.9449    1.7866 H   0  0
   14.4920   -5.9731    0.4596 H   0  0
   16.6789   -6.9027   -0.3964 H   0  0
   18.7688   -3.7590    1.6381 H   0  0
   16.6766   -2.8095    2.3702 H   0  0
   18.4842    0.4999   -1.9650 H   0  0
   17.2376    1.2707    0.7333 H   0  0
   18.2404   -0.8052   -0.6193 H   0  0
   17.8869   -3.1077   -1.1879 H   0  0
   22.1177   -3.7754   -1.3957 H   0  0
   22.4995   -1.3033   -0.7964 H   0  0
   19.0524   -5.3783   -2.1788 H   0  0
   20.7490   -5.6622   -1.7202 H   0  0
   20.0583   -4.5523    1.3713 H   0  0
   20.1446   -6.2273    1.9684 H   0  0
   16.4593   -7.7204   -1.2112 H   0  0
   15.2574   -9.8329   -1.3250 H   0  0
   16.4541  -12.0313   -0.7289 H   0  0
   18.8081  -11.9920   -0.0782 H   0  0
   26.9795   -1.1245    0.3202 H   0  0
   25.0663   -2.5129    0.5723 H   0  0
   31.6020   -1.9386   -0.0105 H   0  0
   29.3116   -0.9095    0.1081 H   0  0
   32.4648   -4.7135    1.1035 H   0  0
   33.3205   -7.6064   -0.6114 H   0  0
   33.5255   -6.6579    0.8803 H   0  0
   34.2464   -6.0870   -0.6434 H   0  0
   34.4163   -4.5396   -0.4718 H   0  0
   33.4230   -3.4758   -1.4970 H   0  0
   34.3027   -2.7159    1.3430 H   0  0
   36.0830   -1.3840    0.2220 H   0  0
   35.5973   -2.0748   -1.3445 H   0  0
   36.2701   -3.1282   -0.0776 H   0  0
   33.9899   -0.3806    0.6458 H   0  0
   32.4601   -1.2712    0.4624 H   0  0
   33.4555   -0.9082   -0.9676 H   0  0
  2  1  1  0
  3  2  1  0
  4  5  2  0
  5  6  1  0
  6  7  2  0
  7  8  1  0
  8  9  2  0
  9  4  1  0
 10 11  2  0
 11 12  1  0
 12 13  2  0
 13 14  1  0
 14 15  2  0
 15 10  1  0
 17 16  1  0
 18 17  1  0
 19 20  2  0
 20 21  1  0
 21 22  2  0
 22 23  1  0
 23 24  2  0
 24 19  1  0
 24 25  1  0
 25 26  1  0
 25 17  1  0
 25 27  1  0
 17 28  2  0
 21 29  1  0
 29 30  1  0
 30 31  1  0
 30 13  1  0
 30 32  1  0
 32  5  1  0
 31 36  1  0
 35 33  1  0
 33 34  2  0
 34 31  1  0
 35 36  2  0
 36 37  1  0
 37 38  2  0
 38 39  1  0
 39 40  2  0
 40 35  1  0
  8 41  1  0
 41 42  2  0
 42 47  1  0
 46 43  1  0
 43 44  2  0
 44 41  1  0
 42  2  1  0
  2 45  2  0
 46 47  1  0
 47 48  2  0
 48 49  1  0
 49 50  2  0
 50 51  1  0
 51 46  2  0
 49 52  1  0
 52 53  1  0
 53 54  1  0
 52 55  1  0
 55 56  1  0
 56 57  1  0
 56 58  1  0
  1 59  1  0
  3 60  1  0
  4 61  1  0
  6 62  1  0
  7 63  1  0
  9 64  1  0
 10 65  1  0
 11 66  1  0
 12 67  1  0
 14 68  1  0
 15 69  1  0
 16 70  1  0
 18 71  1  0
 19 72  1  0
 20 73  1  0
 22 74  1  0
 23 75  1  0
 29 76  1  0
 29 77  1  0
 32 78  1  0
 32 79  1  0
 37 80  1  0
 38 81  1  0
 39 82  1  0
 40 83  1  0
 43 84  1  0
 44 85  1  0
 50 86  1  0
 51 87  1  0
 52 88  1  0
 54 89  1  0
 54 90  1  0
 54 91  1  0
 55 92  1  0
 55 93  1  0
 56 94  1  0
 57 95  1  0
 57 96  1  0
 57 97  1  0
 58 98  1  0
 58 99  1  0
 58100  1  0
M  END
> <Name>
Molecule

> <Clean Energy>
144.434

> <From>
www.bindingDB.org

> <BindingDB Reactant_set_id>
51323647

> <Ligand InChI>
InChI=1S/C43H42F2N4O7P2/c1-28(2)25-39(56-3)37-24-20-32-19-23-35(41(40(32)46-37)57(50,51)52)31-17-13-29(14-18-31)26-42(33-9-5-4-6-10-33,49-38-12-8-7-11-36(38)47-48-49)27-30-15-21-34(22-16-30)43(44,45)5
8(53,54)55/h4-24,28,39H,25-27H2,1-3H3,(H2,50,51,52)(H2,53,54,55)

> <Ligand InChI Key>
ABRZBKRUFDGIHD-UHFFFAOYSA-N

> <BindingDB MonomerID>
50535627

> <BindingDB Ligand Name>
CHEMBL4542052

> <Target Name>
Tyrosine-protein phosphatase non-receptor type 1

> <Target Source Organism According to Curator or DataSource>
Homo sapiens

> <IC50 (nM)>
5

> <Curation/DataSource>
ChEMBL

> <Article DOI>
10.1016/j.bmcl.2019.06.011

> <BindingDB Entry DOI>
10.7270/Q2280C4B

> <PMID>
31221555

> <Authors>
Jin, J; Ye, X; Boateng, D; Dai, K; Ye, F; Du, P; Yu, H

> <Institution>
Zhejiang Sci-Tech University

> <Link to Ligand in BindingDB>
http://www.bindingdb.org/bind/chemsearch/marvin/MolStructure.jsp?monomerid=50535627

> <Link to Ligand-Target Pair in BindingDB>
http://www.bindingdb.org/jsp/dbsearch/PrimarySearch_ki.jsp?energyterm=kJ/mole&tag=pol&polymerid=2622&target=Tyrosine-protein+phosphatase+non-receptor+type+1&column=ki&startPg=0&Increment=50&submit=Sea
rch
http://www.bindingdb.org/jsp/dbsearch/PrimarySearch_ki.jsp?energyterm=kJ/mole&tag=r21&monomerid=50535627&enzyme=Tyrosine-protein+phosphatase+non-receptor+type+1&column=ki&startPg=0&Increment=50&submit
=Search

> <PubChem CID of Ligand>
155551320

> <PubChem SID of Ligand>
440744209

> <Number of Protein Chains in Target (bigger than 1 implies a multichain complex)>
1

> <BindingDB Target Chain Sequence>
MEMEKEFEQIDKSGSWAAIYQDIRHEASDFPCRVAKLPKNKNRNRYRDVSPFDHSRIKLHQEDNDYINASLIKMEEAQRSYILTQGPLPNTCGHFWEMVWEQKSRGVVMLNRVMEKGSLKCAQYWPQKEEKEMIFEDTNLKLTLISEDIKSYYTVRQLELENLTTQETREILHFHYTTWPDFGVPESPASFLNFLFKVRE
SGSLSPEHGPVVVHCSAGIGRSGTFCLADTCLLLMDKRKDPSSVDIKKVLLEMRKFRMGLIQTADQLRFSYLAVIEGAKFIMGDSSVQDQWKELSHEDLEPPPEHIPPPPRPPKRILEPHNGKCREFFPNHQWVKEETQEDKDCPIKEEKGSPLNAAPYGIESMSQDTEVRSRVVGGSLRGAQAASPAKGEPSLPEKDED
HALSYWKPFLVNMCVATVLTAGAYLCYRFLFNSNT

> <PDB ID(s) of Target Chain>
1BZJ,1G7G,1GFY,1JF7,1KAK,1KAV,1LQF,1NL9,1NNY,1NO6,1NZ7,1OEM,1OEO,1OES,1OET,1OEU,1OEV,1ONY,1ONZ,1PH0,1PXH,1PYN,1Q1M,1Q6J,1Q6M,1Q6N,1Q6P,1Q6S,1Q6T,1QXK,1SUG,1T48,1T49,1T4J,1WAX,1XBO,2AZR,2B07,2BGD,2BGE,
2CM2,2CM3,2CM7,2CM8,2CMA,2CMB,2CMC,2CNE,2CNF,2CNG,2CNH,2CNI,2F6T,2F6V,2F6W,2F6Y,2F6Z,2F70,2F71,2FJN,2H4G,2H4K,2HB1,2HNP,2HNQ,2QBP,2QBQ,2QBR,2QBS,2VEU,2VEV,2VEW,2VEX,2VEY,2ZMM,2ZN7,3A5J,3CWE,3D9C,3EAX,
3EB1,3EU0,3I7Z,3I80,3SME,4BJO,4I8N,4QBW,4Y14,5K9V,5K9W,5KA0,5KA1,5T19,6B90,6NTP,6W30,7KEY,7KLX,7LFO,7MN9,7MNA,8DU7,8G65,8G67,8G68,8G69,8G6A,8SKL

> <UniProt (SwissProt) Recommended Name of Target Chain>
Tyrosine-protein phosphatase non-receptor type 1

> <UniProt (SwissProt) Entry Name of Target Chain>
PTN1_HUMAN

> <UniProt (SwissProt) Primary ID of Target Chain>
P18031

> <UniProt (SwissProt) Secondary ID(s) of Target Chain>
Q5TGD8 Q9BQV9 Q9NQQ4

$$$$
Molecule
  SciTegic10242319433D

 69 73  0  0  0  0            999 V2000
   -3.3298   -3.4333    0.2960 N   0  0
   -2.3741   -4.4148    0.4406 N   0  0
    1.7380    3.0651    0.1138 C   0  0
   -2.9628   -1.8974    0.1483 C   0  0  1  0  0  0
    1.3095    4.5818   -0.4061 P   0  0
    0.5862    2.0651    0.4578 C   0  0
    3.0922   -6.0651   -0.2226 P   0  0
    3.4074   -4.4413   -0.0052 C   0  0
   -2.7916   -5.5518    0.2615 N   0  0
   -4.5175   -4.1811   -0.0187 C   0  0
    0.9623    0.7961    1.0841 C   0  0
   -4.1332   -5.5043   -0.0304 C   0  0
   -0.7194    2.2891    0.2059 C   0  0
    2.1115   -3.7345   -0.2364 C   0  0
   -2.2632   -1.2433    1.4480 C   0  0
   -1.8524   -1.8315   -1.0336 C   0  0
    0.5681    4.5089   -1.5665 O   0  0
    2.5905   -6.2559   -1.4940 O   0  0
   -4.2645   -1.1086   -0.0266 C   0  0
    0.0445   -0.1004    1.3992 C   0  0
    2.5152    2.4713   -0.8652 F   0  0
    2.5432    3.2024    1.2241 F   0  0
   -1.3768    0.0660    1.1279 C   0  0
    3.8464   -4.2831    1.2980 F   0  0
    4.3488   -4.0344   -0.9210 F   0  0
    0.5079    5.3097    0.6971 O   0  0
    2.6208    5.3758   -0.6877 O   0  0
    4.3935   -6.8820   -0.0528 O   0  0
    2.0474   -6.5586    0.8172 O   0  0
    1.1091   -3.7753    0.7737 C   0  0
    1.8653   -3.1213   -1.3987 C   0  0
    2.7831    0.3555    1.4408 Br  0  0
   -1.7729    1.2139    0.5427 C   0  0
   -0.4138   -2.5374   -0.7448 C   0  0
   -0.0666   -3.2247    0.5438 C   0  0
    0.5486   -2.4800   -1.6644 C   0  0
   -5.7896   -3.8387   -0.2877 C   0  0
   -4.9355   -6.5176   -0.2861 C   0  0
   -5.0573   -1.0201    1.0510 C   0  0
   -4.6947   -0.5046   -1.2881 C   0  0
   -6.7505   -4.9330   -0.5731 C   0  0
   -6.3447   -6.2096   -0.5732 C   0  0
   -5.8789    0.1168   -1.3427 C   0  0
   -6.3439   -0.3453    0.9940 C   0  0
   -6.7449    0.1960   -0.1507 C   0  0
   -1.0319    3.2343   -0.2379 H   0  0
   -3.0454   -0.9632    2.1536 H   0  0
   -1.6152   -1.9930    1.9020 H   0  0
   -2.2817   -2.3106   -1.9135 H   0  0
   -1.6639   -0.7795   -1.2478 H   0  0
    0.3696   -1.0175    1.8905 H   0  0
   -0.3601    4.7621    0.9189 H   0  0
    3.1881    5.4394    0.1936 H   0  0
    5.0994   -6.5685   -0.7642 H   0  0
    2.4211   -6.4101    1.7872 H   0  0
    1.3121   -4.2579    1.7297 H   0  0
    2.6410   -3.0905   -2.1638 H   0  0
   -2.8248    1.3803    0.3103 H   0  0
   -0.8231   -3.2709    1.3272 H   0  0
    0.3723   -1.9648   -2.6086 H   0  0
   -6.1037   -2.7950   -0.2958 H   0  0
   -4.5692   -7.5441   -0.2850 H   0  0
   -4.7299   -1.4642    1.9910 H   0  0
   -4.0590   -0.5599   -2.1717 H   0  0
   -7.7934   -4.6964   -0.7841 H   0  0
   -7.0517   -7.0121   -0.7838 H   0  0
   -6.2073    0.5694   -2.2784 H   0  0
   -6.9732   -0.2843    1.8819 H   0  0
   -7.7109    0.6974   -0.2093 H   0  0
  2  1  1  0
  3  6  1  0
  4  1  1  0
  5  3  1  0
  6 13  2  0
  7  8  1  0
  8 14  1  0
  9  2  2  0
 10  1  1  0
 11 20  2  0
 12 10  1  0
 13 33  1  0
 14 31  2  0
 15  4  1  0
 16  4  1  0
 17  5  2  0
 18  7  2  0
 19  4  1  0
 20 23  1  0
 21  3  1  0
 22  3  1  0
 23 15  1  0
 24  8  1  0
 25  8  1  0
 26  5  1  0
 27  5  1  0
 28  7  1  0
 29  7  1  0
 30 35  2  0
 31 36  1  0
 32 11  1  0
 33 23  2  0
 34 16  1  0
 35 34  1  0
 36 34  2  0
 37 10  2  0
 38 12  2  0
 39 19  2  0
 40 19  1  0
 41 37  1  0
 42 41  2  0
 43 40  2  0
 44 39  1  0
 45 43  1  0
  9 12  1  0
 38 42  1  0
 45 44  2  0
 14 30  1  0
  6 11  1  0
 13 46  1  0
 15 47  1  0
 15 48  1  0
 16 49  1  0
 16 50  1  0
 20 51  1  0
 26 52  1  0
 27 53  1  0
 28 54  1  0
 29 55  1  0
 30 56  1  0
 31 57  1  0
 33 58  1  0
 35 59  1  0
 36 60  1  0
 37 61  1  0
 38 62  1  0
 39 63  1  0
 40 64  1  0
 41 65  1  0
 42 66  1  0
 43 67  1  0
 44 68  1  0
 45 69  1  0
M  END
> <Name>
Molecule

> <Clean Energy>
108.429

> <From>
www.bindingDB.org

> <BindingDB Reactant_set_id>
50026910

> <Ligand InChI>
InChI=1S/C29H24BrF4N3O6P2/c30-24-16-20(12-15-23(24)29(33,34)45(41,42)43)18-27(21-6-2-1-3-7-21,37-26-9-5-4-8-25(26)35-36-37)17-19-10-13-22(14-11-19)28(31,32)44(38,39)40/h1-16H,17-18H2,(H2,38,39,40)(H2,
41,42,43)

> <Ligand InChI Key>
SLWJGFJPTJPJCI-UHFFFAOYSA-N

> <BindingDB MonomerID>
50142323

> <BindingDB Ligand Name>
CHEMBL267488::[(4-{2-Benzotriazol-1-yl-3-[3-bromo-4-(difluoro-phosphono-methyl)-phenyl]-2-phenyl-propyl}-phenyl)-difluoro-methyl]-phosphonic acid

> <Target Name>
Tyrosine-protein phosphatase non-receptor type 1

> <Target Source Organism According to Curator or DataSource>
Homo sapiens

> <IC50 (nM)>
5

> <Curation/DataSource>
ChEMBL

> <Article DOI>
10.1016/j.bmcl.2003.11.076

> <BindingDB Entry DOI>
10.7270/Q24M9404

> <PMID>
15013020

> <Authors>
Lau, CK; Bayly, CI; Gauthier, JY; Li, CS; Therien, M; Asante-Appiah, E; Cromlish, W; Boie, Y; Forghani, F; Desmarais, S; Wang, Q; Skorey, K; Waddleton, D; Payette, P; Ramachandran, C; Kennedy, BP; Sca
pin, G

> <Institution>
Merck Frosst Centre for Therapeutic Research

> <Link to Ligand in BindingDB>
http://www.bindingdb.org/bind/chemsearch/marvin/MolStructure.jsp?monomerid=50142323

> <Link to Ligand-Target Pair in BindingDB>
http://www.bindingdb.org/jsp/dbsearch/PrimarySearch_ki.jsp?energyterm=kJ/mole&tag=pol&polymerid=2622&target=Tyrosine-protein+phosphatase+non-receptor+type+1&column=ki&startPg=0&Increment=50&submit=Sea
rch
http://www.bindingdb.org/jsp/dbsearch/PrimarySearch_ki.jsp?energyterm=kJ/mole&tag=r21&monomerid=50142323&enzyme=Tyrosine-protein+phosphatase+non-receptor+type+1&column=ki&startPg=0&Increment=50&submit
=Search

> <PubChem CID of Ligand>
10146934

> <PubChem SID of Ligand>
104031714

> <ChEMBL ID of Ligand>
CHEMBL267488

> <ZINC ID of Ligand>
ZINC95540431

> <Number of Protein Chains in Target (bigger than 1 implies a multichain complex)>
1

> <BindingDB Target Chain Sequence>
MEMEKEFEQIDKSGSWAAIYQDIRHEASDFPCRVAKLPKNKNRNRYRDVSPFDHSRIKLHQEDNDYINASLIKMEEAQRSYILTQGPLPNTCGHFWEMVWEQKSRGVVMLNRVMEKGSLKCAQYWPQKEEKEMIFEDTNLKLTLISEDIKSYYTVRQLELENLTTQETREILHFHYTTWPDFGVPESPASFLNFLFKVRE
SGSLSPEHGPVVVHCSAGIGRSGTFCLADTCLLLMDKRKDPSSVDIKKVLLEMRKFRMGLIQTADQLRFSYLAVIEGAKFIMGDSSVQDQWKELSHEDLEPPPEHIPPPPRPPKRILEPHNGKCREFFPNHQWVKEETQEDKDCPIKEEKGSPLNAAPYGIESMSQDTEVRSRVVGGSLRGAQAASPAKGEPSLPEKDED
HALSYWKPFLVNMCVATVLTAGAYLCYRFLFNSNT

> <PDB ID(s) of Target Chain>
1BZJ,1G7G,1GFY,1JF7,1KAK,1KAV,1LQF,1NL9,1NNY,1NO6,1NZ7,1OEM,1OEO,1OES,1OET,1OEU,1OEV,1ONY,1ONZ,1PH0,1PXH,1PYN,1Q1M,1Q6J,1Q6M,1Q6N,1Q6P,1Q6S,1Q6T,1QXK,1SUG,1T48,1T49,1T4J,1WAX,1XBO,2AZR,2B07,2BGD,2BGE,
2CM2,2CM3,2CM7,2CM8,2CMA,2CMB,2CMC,2CNE,2CNF,2CNG,2CNH,2CNI,2F6T,2F6V,2F6W,2F6Y,2F6Z,2F70,2F71,2FJN,2H4G,2H4K,2HB1,2HNP,2HNQ,2QBP,2QBQ,2QBR,2QBS,2VEU,2VEV,2VEW,2VEX,2VEY,2ZMM,2ZN7,3A5J,3CWE,3D9C,3EAX,
3EB1,3EU0,3I7Z,3I80,3SME,4BJO,4I8N,4QBW,4Y14,5K9V,5K9W,5KA0,5KA1,5T19,6B90,6NTP,6W30,7KEY,7KLX,7LFO,7MN9,7MNA,8DU7,8G65,8G67,8G68,8G69,8G6A,8SKL

> <UniProt (SwissProt) Recommended Name of Target Chain>
Tyrosine-protein phosphatase non-receptor type 1

> <UniProt (SwissProt) Entry Name of Target Chain>
PTN1_HUMAN

> <UniProt (SwissProt) Primary ID of Target Chain>
P18031

> <UniProt (SwissProt) Secondary ID(s) of Target Chain>
Q5TGD8 Q9BQV9 Q9NQQ4

$$$$
Molecule
  SciTegic10242319433D

 83 89  0  0  0  0            999 V2000
    3.0036   -3.3705    1.5058 F   0  0
    2.8405   -3.9334    0.2584 C   0  0
    3.0543   -2.9089   -0.6456 F   0  0
    3.9339   -6.1863    1.1065 O   0  0
    3.9901   -5.0979    0.0136 P   0  0
    3.8285   -5.6491   -1.2442 O   0  0
    3.9658    2.7832   -1.1945 F   0  0
    3.6467    3.5264   -0.0787 C   0  0
    4.0285    2.7631    1.0041 F   0  0
    4.3129    5.6818   -1.2156 O   0  0
    4.5621    4.9371   -0.0801 P   0  0
    4.2648    5.7660    1.2024 O   0  0
   -8.8134    3.0378   -0.3823 C   0  0
   -8.8935    1.7452   -0.0482 C   0  0
   -7.6830    0.9098   -0.0787 C   0  0
   -7.5197    3.5948   -0.8222 C   0  0
   -6.4739    2.7759   -0.8406 C   0  0
   -6.5332    1.4686   -0.4574 C   0  0
   -5.1853    0.9896   -0.5676 N   0  0
   -4.4903    2.0321   -1.1335 N   0  0
   -5.1822    3.0476   -1.2606 N   0  0
   -4.4844   -0.2700    0.0423 C   0  0
   -5.5813   -0.9703    0.9799 C   0  0
   -3.3215    0.2566    1.1002 C   0  0
   -2.3241    1.4374    0.7474 C   0  0
   -0.8117    1.3234    0.5191 C   0  0
   -2.0600    3.8312    0.5856 C   0  0
   -2.8375    2.6625    0.8119 C   0  0
   -5.9545   -0.2620    1.9229 O   0  0
   -6.5032   -2.1696    0.7030 C   0  0
   -7.7304   -2.1368    1.2309 C   0  0
   -8.6813   -3.2353    1.0114 C   0  0
   -8.3126   -4.3024    0.3111 C   0  0
   -6.9750   -4.3543   -0.2399 C   0  0
   -6.1425   -3.3322   -0.0595 C   0  0
   -3.8416   -1.0840   -1.1986 C   0  0
   -2.9590   -2.3435   -0.9147 C   0  0
   -3.4266   -3.5716   -1.1578 C   0  0
   -2.6409   -4.7625   -0.9494 C   0  0
   -1.5480   -2.2386   -0.5128 C   0  0
   -0.7513    3.7394    0.3556 C   0  0
   -0.0966    2.4493    0.3402 C   0  0
    1.4034    2.4770    0.1710 C   0  0
    2.0767    3.6288    0.0049 C   0  0
    1.2914    4.9549   -0.0362 C   0  0
   -0.0306    4.9424    0.1373 C   0  0
   -0.8315   -3.3114   -0.3550 C   0  0
   -1.3550   -4.6413   -0.5492 C   0  0
   -0.5613   -5.8092   -0.3556 C   0  0
    0.7537   -5.6920   -0.0527 C   0  0
    1.3491   -4.2732    0.0754 C   0  0
    0.5856   -3.2270   -0.0581 C   0  0
    2.0255    6.6882   -0.3163 Br  0  0
    6.0652    4.5674   -0.0805 O   0  0
    1.6934   -7.3219    0.1605 Br  0  0
    5.3790   -4.4229    0.0916 O   0  0
    3.0039   -6.6726    1.0695 H   0  0
    4.8762    6.6196    1.2175 H   0  0
   -9.6965    3.6745   -0.3301 H   0  0
   -9.8503    1.3132    0.2451 H   0  0
   -7.7251   -0.1426    0.2021 H   0  0
   -7.4257    4.6389   -1.1207 H   0  0
   -3.8499    0.5654    2.0021 H   0  0
   -2.6988   -0.6101    1.3220 H   0  0
   -0.3250    0.3483    0.5020 H   0  0
   -2.5388    4.8102    0.6004 H   0  0
   -3.8958    2.7750    1.0476 H   0  0
   -8.0311   -1.2805    1.8346 H   0  0
   -9.6887   -3.1748    1.4230 H   0  0
   -9.0075   -5.1272    0.1536 H   0  0
   -6.6501   -5.2298   -0.8020 H   0  0
   -5.1498   -3.3789   -0.5070 H   0  0
   -4.6701   -1.4117   -1.8266 H   0  0
   -3.2212   -0.3798   -1.7530 H   0  0
   -4.4458   -3.6775   -1.5296 H   0  0
   -3.0779   -5.7477   -1.1124 H   0  0
   -1.1018   -1.2580   -0.3468 H   0  0
    1.9557    1.5373    0.1839 H   0  0
   -0.5752    5.8862    0.1107 H   0  0
   -1.0126   -6.7968   -0.4515 H   0  0
    1.0331   -2.2400    0.0591 H   0  0
    6.2883    4.0076   -0.9404 H   0  0
    5.5069   -3.9930    1.0410 H   0  0
 17 16  2  0
 23 29  2  0
 16 13  1  0
 23 30  1  0
 17 18  1  0
 30 31  2  0
 11 10  2  0
 31 32  1  0
 12 11  1  0
 32 33  2  0
  2  1  1  0
 33 34  1  0
  3  2  1  0
 34 35  2  0
 35 30  1  0
  8  7  1  0
 22 36  1  0
 18 19  1  0
 36 37  1  0
 19 20  1  0
 37 38  2  0
 20 21  2  0
 38 39  1  0
 39 48  2  0
 21 17  1  0
 47 40  2  0
 40 37  1  0
  9  8  1  0
 19 22  1  0
 41 42  1  0
  5  4  1  0
 42 43  1  0
 22 23  1  0
 43 44  2  0
 13 14  2  0
 44 45  1  0
 22 24  1  0
 45 46  2  0
 46 41  1  0
  6  5  2  0
 24 25  1  0
 47 48  1  0
 14 15  1  0
 48 49  1  0
 25 26  1  0
 49 50  2  0
 26 42  2  0
 50 51  1  0
 15 18  2  0
 51 52  2  0
 52 47  1  0
 41 27  2  0
 45 53  1  0
 44  8  1  0
  8 11  1  0
 11 54  1  0
 27 28  1  0
 50 55  1  0
 51  2  1  0
  2  5  1  0
 28 25  2  0
  5 56  1  0
  4 57  1  0
 12 58  1  0
 13 59  1  0
 14 60  1  0
 15 61  1  0
 16 62  1  0
 24 63  1  0
 24 64  1  0
 26 65  1  0
 27 66  1  0
 28 67  1  0
 31 68  1  0
 32 69  1  0
 33 70  1  0
 34 71  1  0
 35 72  1  0
 36 73  1  0
 36 74  1  0
 38 75  1  0
 39 76  1  0
 40 77  1  0
 43 78  1  0
 46 79  1  0
 49 80  1  0
 52 81  1  0
 54 82  1  0
 56 83  1  0
M  END
> <Name>
Molecule

> <Clean Energy>
140.808

> <From>
www.bindingDB.org

> <BindingDB Reactant_set_id>
253402

> <Ligand InChI>
InChI=1S/C38H27Br2F4N3O7P2/c39-31-18-25-12-10-22(14-27(25)16-29(31)37(41,42)55(49,50)51)20-36(35(48)24-6-2-1-3-7-24,47-34-9-5-4-8-33(34)45-46-47)21-23-11-13-26-19-32(40)30(17-28(26)15-23)38(43,44)56(5
2,53)54/h1-19H,20-21H2,(H2,49,50,51)(H2,52,53,54)

> <Ligand InChI Key>
DELVPFVMXYCLMW-UHFFFAOYSA-N

> <BindingDB MonomerID>
50362181

> <BindingDB Ligand Name>
({7-[2-(1H-1,2,3-benzotriazol-1-yl)-2-({6-bromo-7-[difluoro(phosphono)methyl]naphthalen-2-yl}methyl)-3-oxo-3-phenylpropyl]-3-bromonaphthalen-2-yl}difluoromethyl)phosphonic acid (10h)::CHEMBL1938814

> <Target Name>
Tyrosine-protein phosphatase non-receptor type 1

> <Target Source Organism According to Curator or DataSource>
Homo sapiens

> <IC50 (nM)>
5

> <Curation/DataSource>
Curated from the literature by BindingDB

> <Article DOI>
10.1002/cmdc.201100077

> <BindingDB Entry DOI>
10.7270/Q2XW4HGZ

> <PMID>
21506278

> <PubChem AID>
aid1800514

> <Authors>
Patel, D; Jain, M; Shah, SR; Bahekar, R; Jadav, P; Darji, B; Siriki, Y; Bandyopadhyay, D; Joharapurkar, A; Kshirsagar, S; Patel, H; Shaikh, M; Sairam, KV; Patel, P

> <Institution>
Zydus Research Centre

> <Link to Ligand in BindingDB>
http://www.bindingdb.org/bind/chemsearch/marvin/MolStructure.jsp?monomerid=50362181

> <Link to Ligand-Target Pair in BindingDB>
http://www.bindingdb.org/jsp/dbsearch/PrimarySearch_ki.jsp?energyterm=kJ/mole&tag=pol&polymerid=2622&target=Tyrosine-protein+phosphatase+non-receptor+type+1&column=ki&startPg=0&Increment=50&submit=Sea
rch
http://www.bindingdb.org/jsp/dbsearch/PrimarySearch_ki.jsp?energyterm=kJ/mole&tag=r21&monomerid=50362181&enzyme=Tyrosine-protein+phosphatase+non-receptor+type+1&column=ki&startPg=0&Increment=50&submit
=Search

> <PubChem CID of Ligand>
53361713

> <PubChem SID of Ligand>
136966243

> <ChEMBL ID of Ligand>
CHEMBL1938814

> <Number of Protein Chains in Target (bigger than 1 implies a multichain complex)>
1

> <BindingDB Target Chain Sequence>
MEMEKEFEQIDKSGSWAAIYQDIRHEASDFPCRVAKLPKNKNRNRYRDVSPFDHSRIKLHQEDNDYINASLIKMEEAQRSYILTQGPLPNTCGHFWEMVWEQKSRGVVMLNRVMEKGSLKCAQYWPQKEEKEMIFEDTNLKLTLISEDIKSYYTVRQLELENLTTQETREILHFHYTTWPDFGVPESPASFLNFLFKVRE
SGSLSPEHGPVVVHCSAGIGRSGTFCLADTCLLLMDKRKDPSSVDIKKVLLEMRKFRMGLIQTADQLRFSYLAVIEGAKFIMGDSSVQDQWKELSHEDLEPPPEHIPPPPRPPKRILEPHNGKCREFFPNHQWVKEETQEDKDCPIKEEKGSPLNAAPYGIESMSQDTEVRSRVVGGSLRGAQAASPAKGEPSLPEKDED
HALSYWKPFLVNMCVATVLTAGAYLCYRFLFNSNT

> <PDB ID(s) of Target Chain>
1BZJ,1G7G,1GFY,1JF7,1KAK,1KAV,1LQF,1NL9,1NNY,1NO6,1NZ7,1OEM,1OEO,1OES,1OET,1OEU,1OEV,1ONY,1ONZ,1PH0,1PXH,1PYN,1Q1M,1Q6J,1Q6M,1Q6N,1Q6P,1Q6S,1Q6T,1QXK,1SUG,1T48,1T49,1T4J,1WAX,1XBO,2AZR,2B07,2BGD,2BGE,
2CM2,2CM3,2CM7,2CM8,2CMA,2CMB,2CMC,2CNE,2CNF,2CNG,2CNH,2CNI,2F6T,2F6V,2F6W,2F6Y,2F6Z,2F70,2F71,2FJN,2H4G,2H4K,2HB1,2HNP,2HNQ,2QBP,2QBQ,2QBR,2QBS,2VEU,2VEV,2VEW,2VEX,2VEY,2ZMM,2ZN7,3A5J,3CWE,3D9C,3EAX,
3EB1,3EU0,3I7Z,3I80,3SME,4BJO,4I8N,4QBW,4Y14,5K9V,5K9W,5KA0,5KA1,5T19,6B90,6NTP,6W30,7KEY,7KLX,7LFO,7MN9,7MNA,8DU7,8G65,8G67,8G68,8G69,8G6A,8SKL

> <UniProt (SwissProt) Recommended Name of Target Chain>
Tyrosine-protein phosphatase non-receptor type 1

> <UniProt (SwissProt) Entry Name of Target Chain>
PTN1_HUMAN

> <UniProt (SwissProt) Primary ID of Target Chain>
P18031

> <UniProt (SwissProt) Secondary ID(s) of Target Chain>
Q5TGD8 Q9BQV9 Q9NQQ4

$$$$
Molecule
  SciTegic10242319433D

 81 87  0  0  0  0            999 V2000
   -1.8556    3.8014    0.4082 C   0  0
   -3.0606    3.1972    0.7315 C   0  0
   -3.1349    1.8290    0.9641 C   0  0
   -1.9926    1.1238    0.9120 N   0  0
   -0.8028    1.6604    0.5954 C   0  0
   -0.7178    3.0178    0.3233 C   0  0
    0.3562    0.8766    0.4922 C   0  0
    1.5791    1.4438    0.1122 C   0  0
    1.6342    2.8130   -0.1514 C   0  0
    0.4909    3.5914   -0.0412 C   0  0
    3.2603    3.6693   -0.6779 Br  0  0
    2.8866    0.6093   -0.0455 C   0  0
    3.8075    1.0890    0.8640 F   0  0
    2.7502   -1.0400    0.1398 P   0  0
    3.4055    0.8531   -1.3023 F   0  0
   -4.5654    1.0862    1.2636 C   0  0
   -5.7962    1.0176    0.0954 C   0  0
   -7.0786    0.2366    0.7258 C   0  0
   -6.1854    2.5615   -0.2336 N   0  0
   -5.2834    3.3762   -0.6072 N   0  0
   -5.6905    4.5731   -0.7765 N   0  0
   -6.9756    4.5678   -0.5178 C   0  0
   -7.3303    3.2845   -0.1842 C   0  0
   -8.6559    3.0150    0.1205 C   0  0
   -9.5836    4.0622    0.0862 C   0  0
   -9.1951    5.3628   -0.2414 C   0  0
   -7.8681    5.6330   -0.5545 C   0  0
   -7.4824   -1.1957    0.5328 C   0  0
   -7.9043    0.8902    1.3571 O   0  0
   -8.8405   -1.5005    0.5548 C   0  0
   -9.2786   -2.8093    0.3756 C   0  0
   -8.3595   -3.8356    0.1957 C   0  0
   -7.0032   -3.5439    0.1984 C   0  0
   -6.5811   -2.2313    0.3635 C   0  0
    4.1621   -1.6618   -0.0722 O   0  0
    1.8876   -1.5541   -0.8067 O   0  0
    2.2514   -1.3938    1.5595 O   0  0
   -5.1302    0.2809   -1.2737 C   0  0
   -4.0459   -0.9243   -1.1073 C   0  0
   -4.2359   -2.2472   -0.9039 N   0  0
   -3.2057   -3.1020   -0.6966 C   0  0
   -1.9139   -2.6044   -0.6813 C   0  0
   -1.6752   -1.2809   -0.9481 C   0  0
   -2.7496   -0.4564   -1.1772 C   0  0
   -3.3514   -4.4837   -0.4778 C   0  0
   -2.2486   -5.3295   -0.2212 C   0  0
   -0.9692   -4.7513   -0.1546 C   0  0
   -0.8273   -3.4031   -0.4028 C   0  0
    0.6771   -5.6247    0.2420 Br  0  0
   -2.5398   -6.8825   -0.0359 C   0  0
   -1.2589   -7.9489    0.2927 P   0  0
   -3.4922   -7.0139    0.9461 F   0  0
   -3.1411   -7.3047   -1.2040 F   0  0
   -1.8073   -9.3923    0.3952 O   0  0
   -0.6645   -7.6325    1.4990 O   0  0
   -0.2132   -7.9346   -0.8625 O   0  0
   -1.8051    4.8746    0.2241 H   0  0
   -3.9631    3.8041    0.8044 H   0  0
    0.3042   -0.1900    0.7111 H   0  0
    0.5432    4.6613   -0.2427 H   0  0
   -4.3271    0.0536    1.5189 H   0  0
   -4.9945    1.5860    2.1321 H   0  0
   -8.9700    2.0046    0.3822 H   0  0
  -10.6287    3.8589    0.3196 H   0  0
   -9.9322    6.1658   -0.2516 H   0  0
   -7.5407    6.6387   -0.8180 H   0  0
   -9.5688   -0.7054    0.7140 H   0  0
  -10.3460   -3.0298    0.3765 H   0  0
   -8.7011   -4.8609    0.0536 H   0  0
   -6.2717   -4.3419    0.0715 H   0  0
   -5.5135   -2.0117    0.3596 H   0  0
    4.5053   -1.4312   -1.0374 H   0  0
    2.9318   -1.0289    2.2711 H   0  0
   -5.9628   -0.1230   -1.8496 H   0  0
   -4.6395    1.0679   -1.8465 H   0  0
   -0.6573   -0.8923   -0.9777 H   0  0
   -2.5742    0.5917   -1.4197 H   0  0
   -4.3508   -4.9178   -0.5071 H   0  0
    0.1678   -2.9589   -0.3781 H   0  0
   -2.5146   -9.4443    1.1696 H   0  0
   -0.6759   -8.2292   -1.7578 H   0  0
  1  2  4  0
  1  6  4  0
  2  3  4  0
  3  4  4  0
  4  5  4  0
  5  7  4  0
  6  5  4  0
  6 10  4  0
  7  8  4  0
  8  9  4  0
  9 10  4  0
  9 11  1  0
  8 12  1  0
 12 13  1  0
 12 14  1  0
 12 15  1  0
  3 16  1  0
 16 17  1  0
 17 18  1  0
 17 19  1  0
 19 20  4  0
 19 23  4  0
 20 21  4  0
 21 22  4  0
 22 27  4  0
 22 23  4  0
 23 24  4  0
 24 25  4  0
 25 26  4  0
 26 27  4  0
 18 28  1  0
 18 29  2  0
 28 30  4  0
 28 34  4  0
 30 31  4  0
 31 32  4  0
 32 33  4  0
 33 34  4  0
 14 35  1  0
 14 36  2  0
 14 37  1  0
 17 38  1  0
 38 39  1  0
 39 40  4  0
 39 44  4  0
 40 41  4  0
 42 43  4  0
 43 44  4  0
 41 45  4  0
 41 42  4  0
 42 48  4  0
 45 46  4  0
 46 47  4  0
 47 48  4  0
 47 49  1  0
 46 50  1  0
 50 51  1  0
 50 52  1  0
 50 53  1  0
 51 54  1  0
 51 55  2  0
 51 56  1  0
  1 57  1  0
  2 58  1  0
  7 59  1  0
 10 60  1  0
 16 61  1  0
 16 62  1  0
 24 63  1  0
 25 64  1  0
 26 65  1  0
 27 66  1  0
 30 67  1  0
 31 68  1  0
 32 69  1  0
 33 70  1  0
 34 71  1  0
 35 72  1  0
 37 73  1  0
 38 74  1  0
 38 75  1  0
 43 76  1  0
 44 77  1  0
 45 78  1  0
 48 79  1  0
 54 80  1  0
 56 81  1  0
M  END
> <Name>
Molecule

> <Clean Energy>
147.374

> <From>
www.bindingDB.org

> <BindingDB Reactant_set_id>
253408

> <Ligand InChI>
InChI=1S/C36H25Br2F4N5O7P2/c37-27-14-21-10-12-23(43-30(21)16-25(27)35(39,40)55(49,50)51)18-34(33(48)20-6-2-1-3-7-20,47-32-9-5-4-8-29(32)45-46-47)19-24-13-11-22-15-28(38)26(17-31(22)44-24)36(41,42)56(5
2,53)54/h1-17H,18-19H2,(H2,49,50,51)(H2,52,53,54)

> <Ligand InChI Key>
PWNDGSNZJKMHJB-UHFFFAOYSA-N

> <BindingDB MonomerID>
124220

> <BindingDB Ligand Name>
({2-[2-(1H-1,2,3-benzotriazol-1-yl)-2-({6-bromo-7-[difluoro(phosphono)methyl]quinolin-2-yl}methyl)-3-oxo-3-phenylpropyl]-6-bromoquinolin-7-yl}difluoromethyl)phosphonic acid (10n)

> <Target Name>
Tyrosine-protein phosphatase non-receptor type 1

> <Target Source Organism According to Curator or DataSource>
Homo sapiens

> <IC50 (nM)>
5

> <Curation/DataSource>
Curated from the literature by BindingDB

> <Article DOI>
10.1002/cmdc.201100077

> <BindingDB Entry DOI>
10.7270/Q2XW4HGZ

> <PMID>
21506278

> <PubChem AID>
aid1800514

> <Authors>
Patel, D; Jain, M; Shah, SR; Bahekar, R; Jadav, P; Darji, B; Siriki, Y; Bandyopadhyay, D; Joharapurkar, A; Kshirsagar, S; Patel, H; Shaikh, M; Sairam, KV; Patel, P

> <Institution>
Zydus Research Centre

> <Link to Ligand in BindingDB>
http://www.bindingdb.org/bind/chemsearch/marvin/MolStructure.jsp?monomerid=124220

> <Link to Ligand-Target Pair in BindingDB>
http://www.bindingdb.org/jsp/dbsearch/PrimarySearch_ki.jsp?energyterm=kJ/mole&tag=pol&polymerid=2622&target=Tyrosine-protein+phosphatase+non-receptor+type+1&column=ki&startPg=0&Increment=50&submit=Sea
rch
http://www.bindingdb.org/jsp/dbsearch/PrimarySearch_ki.jsp?energyterm=kJ/mole&tag=r21&monomerid=124220&enzyme=Tyrosine-protein+phosphatase+non-receptor+type+1&column=ki&startPg=0&Increment=50&submit=S
earch

> <PubChem CID of Ligand>
86766293

> <PubChem SID of Ligand>
225150612

> <Number of Protein Chains in Target (bigger than 1 implies a multichain complex)>
1

> <BindingDB Target Chain Sequence>
MEMEKEFEQIDKSGSWAAIYQDIRHEASDFPCRVAKLPKNKNRNRYRDVSPFDHSRIKLHQEDNDYINASLIKMEEAQRSYILTQGPLPNTCGHFWEMVWEQKSRGVVMLNRVMEKGSLKCAQYWPQKEEKEMIFEDTNLKLTLISEDIKSYYTVRQLELENLTTQETREILHFHYTTWPDFGVPESPASFLNFLFKVRE
SGSLSPEHGPVVVHCSAGIGRSGTFCLADTCLLLMDKRKDPSSVDIKKVLLEMRKFRMGLIQTADQLRFSYLAVIEGAKFIMGDSSVQDQWKELSHEDLEPPPEHIPPPPRPPKRILEPHNGKCREFFPNHQWVKEETQEDKDCPIKEEKGSPLNAAPYGIESMSQDTEVRSRVVGGSLRGAQAASPAKGEPSLPEKDED
HALSYWKPFLVNMCVATVLTAGAYLCYRFLFNSNT

> <PDB ID(s) of Target Chain>
1BZJ,1G7G,1GFY,1JF7,1KAK,1KAV,1LQF,1NL9,1NNY,1NO6,1NZ7,1OEM,1OEO,1OES,1OET,1OEU,1OEV,1ONY,1ONZ,1PH0,1PXH,1PYN,1Q1M,1Q6J,1Q6M,1Q6N,1Q6P,1Q6S,1Q6T,1QXK,1SUG,1T48,1T49,1T4J,1WAX,1XBO,2AZR,2B07,2BGD,2BGE,
2CM2,2CM3,2CM7,2CM8,2CMA,2CMB,2CMC,2CNE,2CNF,2CNG,2CNH,2CNI,2F6T,2F6V,2F6W,2F6Y,2F6Z,2F70,2F71,2FJN,2H4G,2H4K,2HB1,2HNP,2HNQ,2QBP,2QBQ,2QBR,2QBS,2VEU,2VEV,2VEW,2VEX,2VEY,2ZMM,2ZN7,3A5J,3CWE,3D9C,3EAX,
3EB1,3EU0,3I7Z,3I80,3SME,4BJO,4I8N,4QBW,4Y14,5K9V,5K9W,5KA0,5KA1,5T19,6B90,6NTP,6W30,7KEY,7KLX,7LFO,7MN9,7MNA,8DU7,8G65,8G67,8G68,8G69,8G6A,8SKL

> <UniProt (SwissProt) Recommended Name of Target Chain>
Tyrosine-protein phosphatase non-receptor type 1

> <UniProt (SwissProt) Entry Name of Target Chain>
PTN1_HUMAN

> <UniProt (SwissProt) Primary ID of Target Chain>
P18031

> <UniProt (SwissProt) Secondary ID(s) of Target Chain>
Q5TGD8 Q9BQV9 Q9NQQ4

$$$$
Molecule
  SciTegic10242319433D

 81 87  0  0  0  0            999 V2000
   -1.7994    3.7122    0.3094 C   0  0
   -3.0151    3.1304    0.6447 C   0  0
   -3.1137    1.7941    1.0109 C   0  0
   -1.9150    1.0717    1.0806 C   0  0
   -0.6861    1.6224    0.7000 C   0  0
   -0.6404    2.9506    0.3072 C   0  0
    0.4815    0.8485    0.6387 C   0  0
    1.6843    1.4033    0.1836 C   0  0
    1.7105    2.7525   -0.1772 C   0  0
    0.5534    3.5161   -0.1116 C   0  0
    3.3069    3.6056   -0.7936 Br  0  0
    2.9932    0.5643    0.0356 C   0  0
    3.8953    1.0089    0.9778 F   0  0
    2.8289   -1.0899    0.1628 P   0  0
    3.5444    0.8242   -1.2040 F   0  0
   -4.5647    1.0463    1.2654 C   0  0
   -5.8029    0.9755    0.0585 C   0  0  1  0  0  0
   -7.0860    0.1953    0.6919 C   0  0
   -6.1859    2.5246   -0.2420 N   0  0
   -5.2809    3.3443   -0.5794 N   0  0
   -5.6802    4.5481   -0.7258 N   0  0
   -6.9644    4.5394   -0.4880 C   0  0
   -7.3364    3.2496   -0.1911 C   0  0
   -8.6604    2.9784    0.0855 C   0  0
   -9.5859    4.0313    0.0643 C   0  0
   -9.1861    5.3373   -0.2247 C   0  0
   -7.8555    5.6100   -0.5108 C   0  0
   -7.4746   -1.2405    0.5223 C   0  0
   -7.9220    0.8489    1.3084 O   0  0
   -8.8306   -1.5546    0.5109 C   0  0
   -9.2544   -2.8702    0.3498 C   0  0
   -8.3232   -3.8932    0.2215 C   0  0
   -6.9698   -3.5910    0.2608 C   0  0
   -6.5606   -2.2721    0.4088 C   0  0
    4.2342   -1.7270   -0.0468 O   0  0
    1.9785   -1.5540   -0.8211 O   0  0
    2.2940   -1.4910    1.5550 O   0  0
   -5.1778    0.2194   -1.3726 C   0  0
   -4.1197   -1.0136   -1.2151 C   0  0
   -4.3325   -2.3374   -1.0486 N   0  0
   -3.3276   -3.1933   -0.7278 C   0  0
   -2.0508   -2.6834   -0.5496 C   0  0
   -1.7802   -1.3735   -0.8284 C   0  0
   -2.8245   -0.5528   -1.1811 C   0  0
   -3.4941   -4.5727   -0.5182 C   0  0
   -2.4244   -5.3816   -0.0718 C   0  0
   -1.1973   -4.7830    0.2173 C   0  0
   -1.0119   -3.4504   -0.0638 C   0  0
    0.2758   -5.6798    1.0226 Br  0  0
   -2.5980   -6.9141    0.1256 C   0  0
   -1.3755   -7.8890   -0.9130 S   0  0
   -3.8680   -7.2939   -0.2502 F   0  0
   -2.3695   -7.2454    1.4437 F   0  0
   -1.5940   -9.5929   -0.6620 N   0  0
    0.0871   -7.5979   -0.6441 O   0  0
   -1.7561    4.7693    0.0474 H   0  0
   -3.9182    3.7402    0.6197 H   0  0
   -1.9406    0.0444    1.4441 H   0  0
    0.4528   -0.1961    0.9486 H   0  0
    0.5839    4.5690   -0.3918 H   0  0
   -4.3310    0.0123    1.5191 H   0  0
   -5.0118    1.5404    2.1280 H   0  0
   -8.9815    1.9627    0.3166 H   0  0
  -10.6352    3.8268    0.2770 H   0  0
   -9.9195    6.1436   -0.2257 H   0  0
   -7.5213    6.6210   -0.7439 H   0  0
   -9.5686   -0.7613    0.6295 H   0  0
  -10.3199   -3.0988    0.3242 H   0  0
   -8.6530   -4.9239    0.0912 H   0  0
   -6.2296   -4.3866    0.1757 H   0  0
   -5.4949   -2.0450    0.4360 H   0  0
    4.5973   -1.4698   -0.9979 H   0  0
    2.9624   -1.1626    2.2952 H   0  0
   -6.0320   -0.1618   -1.9321 H   0  0
   -4.6798    0.9959   -1.9532 H   0  0
   -0.7617   -0.9892   -0.7724 H   0  0
   -2.6217    0.4865   -1.4398 H   0  0
   -4.4671   -5.0277   -0.7035 H   0  0
   -0.0349   -2.9952    0.0985 H   0  0
   -2.5887   -9.8705   -0.9422 H   0  0
   -1.4370   -9.8249    0.3707 H   0  0
  1  2  4  0
  1  6  4  0
  2  3  4  0
  3  4  4  0
  4  5  4  0
  5  7  4  0
  6  5  4  0
  6 10  4  0
  7  8  4  0
  8  9  4  0
  9 10  4  0
  9 11  1  0
  8 12  1  0
 12 13  1  0
 12 14  1  0
 12 15  1  0
  3 16  1  0
 16 17  1  0
 17 18  1  0
 17 19  1  0
 19 20  4  0
 19 23  4  0
 20 21  4  0
 21 22  4  0
 22 27  4  0
 22 23  4  0
 23 24  4  0
 24 25  4  0
 25 26  4  0
 26 27  4  0
 18 28  1  0
 18 29  2  0
 28 30  4  0
 28 34  4  0
 30 31  4  0
 31 32  4  0
 32 33  4  0
 33 34  4  0
 14 35  1  0
 14 36  2  0
 14 37  1  0
 17 38  1  0
 38 39  1  0
 39 40  4  0
 39 44  4  0
 40 41  4  0
 42 43  4  0
 43 44  4  0
 41 45  4  0
 41 42  4  0
 42 48  4  0
 45 46  4  0
 46 47  4  0
 47 48  4  0
 47 49  1  0
 46 50  1  0
 50 51  1  0
 50 52  1  0
 50 53  1  0
 51 54  1  0
 51 55  2  0
  1 56  1  0
  2 57  1  0
  4 58  1  0
  7 59  1  0
 10 60  1  0
 16 61  1  0
 16 62  1  0
 24 63  1  0
 25 64  1  0
 26 65  1  0
 27 66  1  0
 30 67  1  0
 31 68  1  0
 32 69  1  0
 33 70  1  0
 34 71  1  0
 35 72  1  0
 37 73  1  0
 38 74  1  0
 38 75  1  0
 43 76  1  0
 44 77  1  0
 45 78  1  0
 48 79  1  0
 54 80  1  0
 54 81  1  0
M  END
> <Name>
Molecule

> <Clean Energy>
159.781

> <From>
www.bindingDB.org

> <BindingDB Reactant_set_id>
253405

> <Ligand InChI>
InChI=1S/C37H26Br2F4N5O5PS/c38-29-16-23-11-10-21(14-25(23)15-27(29)36(40,41)54(50,51)52)19-35(34(49)22-6-2-1-3-7-22,48-33-9-5-4-8-31(33)46-47-48)20-26-13-12-24-17-30(39)28(18-32(24)45-26)37(42,43)55(4
4)53/h1-18H,19-20,44H2,(H2,50,51,52)

> <Ligand InChI Key>
OLYDIQWQGAMQGY-UHFFFAOYSA-N

> <BindingDB MonomerID>
124217

> <BindingDB Ligand Name>
({7-[2-({7-[(aminosulfinyl)difluoromethyl]-6-bromoquinolin-2-yl}methyl)-2-(1H-1,2,3-benzotriazol-1-yl)-3-oxo-3-phenylpropyl]-3-bromonaphthalen-2-yl}difluoromethyl)phosphonic acid (10k)

> <Target Name>
Tyrosine-protein phosphatase non-receptor type 1

> <Target Source Organism According to Curator or DataSource>
Homo sapiens

> <IC50 (nM)>
6

> <Curation/DataSource>
Curated from the literature by BindingDB

> <Article DOI>
10.1002/cmdc.201100077

> <BindingDB Entry DOI>
10.7270/Q2XW4HGZ

> <PMID>
21506278

> <PubChem AID>
aid1800514

> <Authors>
Patel, D; Jain, M; Shah, SR; Bahekar, R; Jadav, P; Darji, B; Siriki, Y; Bandyopadhyay, D; Joharapurkar, A; Kshirsagar, S; Patel, H; Shaikh, M; Sairam, KV; Patel, P

> <Institution>
Zydus Research Centre

> <Link to Ligand in BindingDB>
http://www.bindingdb.org/bind/chemsearch/marvin/MolStructure.jsp?monomerid=124217

> <Link to Ligand-Target Pair in BindingDB>
http://www.bindingdb.org/jsp/dbsearch/PrimarySearch_ki.jsp?energyterm=kJ/mole&tag=pol&polymerid=2622&target=Tyrosine-protein+phosphatase+non-receptor+type+1&column=ki&startPg=0&Increment=50&submit=Sea
rch
http://www.bindingdb.org/jsp/dbsearch/PrimarySearch_ki.jsp?energyterm=kJ/mole&tag=r21&monomerid=124217&enzyme=Tyrosine-protein+phosphatase+non-receptor+type+1&column=ki&startPg=0&Increment=50&submit=S
earch

> <PubChem CID of Ligand>
86766290

> <PubChem SID of Ligand>
225150609

> <Number of Protein Chains in Target (bigger than 1 implies a multichain complex)>
1

> <BindingDB Target Chain Sequence>
MEMEKEFEQIDKSGSWAAIYQDIRHEASDFPCRVAKLPKNKNRNRYRDVSPFDHSRIKLHQEDNDYINASLIKMEEAQRSYILTQGPLPNTCGHFWEMVWEQKSRGVVMLNRVMEKGSLKCAQYWPQKEEKEMIFEDTNLKLTLISEDIKSYYTVRQLELENLTTQETREILHFHYTTWPDFGVPESPASFLNFLFKVRE
SGSLSPEHGPVVVHCSAGIGRSGTFCLADTCLLLMDKRKDPSSVDIKKVLLEMRKFRMGLIQTADQLRFSYLAVIEGAKFIMGDSSVQDQWKELSHEDLEPPPEHIPPPPRPPKRILEPHNGKCREFFPNHQWVKEETQEDKDCPIKEEKGSPLNAAPYGIESMSQDTEVRSRVVGGSLRGAQAASPAKGEPSLPEKDED
HALSYWKPFLVNMCVATVLTAGAYLCYRFLFNSNT

> <PDB ID(s) of Target Chain>
1BZJ,1G7G,1GFY,1JF7,1KAK,1KAV,1LQF,1NL9,1NNY,1NO6,1NZ7,1OEM,1OEO,1OES,1OET,1OEU,1OEV,1ONY,1ONZ,1PH0,1PXH,1PYN,1Q1M,1Q6J,1Q6M,1Q6N,1Q6P,1Q6S,1Q6T,1QXK,1SUG,1T48,1T49,1T4J,1WAX,1XBO,2AZR,2B07,2BGD,2BGE,
2CM2,2CM3,2CM7,2CM8,2CMA,2CMB,2CMC,2CNE,2CNF,2CNG,2CNH,2CNI,2F6T,2F6V,2F6W,2F6Y,2F6Z,2F70,2F71,2FJN,2H4G,2H4K,2HB1,2HNP,2HNQ,2QBP,2QBQ,2QBR,2QBS,2VEU,2VEV,2VEW,2VEX,2VEY,2ZMM,2ZN7,3A5J,3CWE,3D9C,3EAX,
3EB1,3EU0,3I7Z,3I80,3SME,4BJO,4I8N,4QBW,4Y14,5K9V,5K9W,5KA0,5KA1,5T19,6B90,6NTP,6W30,7KEY,7KLX,7LFO,7MN9,7MNA,8DU7,8G65,8G67,8G68,8G69,8G6A,8SKL

> <UniProt (SwissProt) Recommended Name of Target Chain>
Tyrosine-protein phosphatase non-receptor type 1

> <UniProt (SwissProt) Entry Name of Target Chain>
PTN1_HUMAN

> <UniProt (SwissProt) Primary ID of Target Chain>
P18031

> <UniProt (SwissProt) Secondary ID(s) of Target Chain>
Q5TGD8 Q9BQV9 Q9NQQ4

$$$$
Molecule
  SciTegic10242319433D

 50 52  0  0  0  0            999 V2000
   -3.6579    3.9734    0.0254 C   0  0
   -4.9509    3.3407    0.3147 C   0  0
   -5.0571    2.0143    0.3849 C   0  0
   -3.8334    1.1789    0.1494 C   0  0
   -2.6611    1.7725   -0.1004 C   0  0
   -2.5638    3.2337   -0.1575 C   0  0
   -1.2290    3.9309   -0.3868 C   0  0
    0.2177    2.8157   -0.2227 S   0  0
    1.7263    3.8535   -0.2327 C   0  0
    4.1860    3.7448   -0.1443 C   0  0
    3.0341    3.0727   -0.1336 C   0  0
    3.0554    1.6030   -0.0408 C   0  0
    4.2241    0.9545    0.0249 C   0  0
    5.4939    1.7042    0.0036 C   0  0
    5.4675    3.0355   -0.0745 C   0  0
    6.7979    1.0068    0.0407 C   0  0
    6.8565   -0.3268    0.0991 C   0  0
    8.1648   -1.0123    0.1067 C   0  0
    9.2909   -0.2944    0.0499 C   0  0
    9.2189    1.1675   -0.0088 C   0  0
    8.0385    1.7831   -0.0125 C   0  0
   11.0002   -1.1360    0.0359 Br  0  0
   -3.8935   -0.7263    0.1931 Br  0  0
   -6.4153    1.4120    0.7825 C   0  0
   -7.1269    2.3504    1.5000 F   0  0
   -6.2409    0.2649    1.5202 F   0  0
   -7.3415    1.0158   -0.5428 P   0  0
   -8.5432    0.4978   -0.0990 O   0  0
   -7.6180    2.2809   -1.3915 O   0  5
   -6.6191   -0.0441   -1.4068 O   0  5
    8.2080   -2.7940    0.1746 S   0  0
    8.2743   -3.4092   -1.4514 N   0  0
    6.9427   -3.3050    0.8350 O   0  0
    9.4276   -3.2881    0.9300 O   0  0
   -3.5918    5.0594   -0.0405 H   0  0
   -5.8324    3.9619    0.4735 H   0  0
   -1.7710    1.1646   -0.2627 H   0  0
   -1.2279    4.3513   -1.3924 H   0  0
   -1.1297    4.7340    0.3435 H   0  0
    1.7404    4.4240   -1.1614 H   0  0
    1.6738    4.5379    0.6140 H   0  0
    4.1747    4.8330   -0.2056 H   0  0
    2.1198    1.0438   -0.0256 H   0  0
    4.2376   -0.1332    0.0945 H   0  0
    6.4013    3.5977   -0.0865 H   0  0
    5.9368   -0.9102    0.1412 H   0  0
   10.1365    1.7543   -0.0498 H   0  0
    7.9952    2.8714   -0.0554 H   0  0
    9.1544   -3.0418   -1.9367 H   0  0
    7.4087   -3.0862   -1.9911 H   0  0
 16 17  2  0
 17 18  1  0
  8  9  1  0
 18 19  2  0
  9 11  1  0
 19 20  1  0
  4  5  2  0
 20 21  2  0
 21 16  1  0
 14 16  1  0
  2  3  2  0
 19 22  1  0
 10 11  2  0
  4 23  1  0
  5  6  1  0
  3 24  1  0
 11 12  1  0
 24 25  1  0
  6  1  2  0
 24 26  1  0
 12 13  2  0
 24 27  1  0
  1  2  1  0
 27 28  2  0
 13 14  1  0
 27 29  1  0
  6  7  1  0
 27 30  1  0
 14 15  2  0
 18 31  1  0
 15 10  1  0
 31 32  1  0
  3  4  1  0
 31 33  2  0
  7  8  1  0
 31 34  2  0
  1 35  1  0
  2 36  1  0
  5 37  1  0
  7 38  1  0
  7 39  1  0
  9 40  1  0
  9 41  1  0
 10 42  1  0
 12 43  1  0
 13 44  1  0
 15 45  1  0
 17 46  1  0
 20 47  1  0
 21 48  1  0
 32 49  1  0
 32 50  1  0
M  CHG  2  29  -1  30  -1
M  END
> <Name>
Molecule

> <Clean Energy>
18.0392

> <From>
www.bindingDB.org

> <BindingDB Reactant_set_id>
50875068

> <Ligand InChI>
InChI=1S/C21H18Br2F2NO5PS2/c22-18-8-6-16(10-20(18)34(26,30)31)15-4-1-13(2-5-15)11-33-12-14-3-7-17(19(23)9-14)21(24,25)32(27,28)29/h1-10H,11-12H2,(H2,26,30,31)(H2,27,28,29)/p-2

> <Ligand InChI Key>
QJICRYSMSOKYFC-UHFFFAOYSA-L

> <BindingDB MonomerID>
50243184

> <BindingDB Ligand Name>
{[2-Bromo-4-(40-bromo-30-sulfamoylbiphenyl-4-ylmethylsulfanylmethyl)-ylmethylsulfanylmethyl)-

> <Target Name>
Tyrosine-protein phosphatase non-receptor type 1

> <Target Source Organism According to Curator or DataSource>
Homo sapiens

> <IC50 (nM)>
6

> <Curation/DataSource>
ChEMBL

> <Article DOI>
10.1016/j.bmc.2008.05.062

> <BindingDB Entry DOI>
10.7270/Q2930V2P

> <PMID>
18555687

> <Authors>
Hussain, M; Ahmed, V; Hill, B; Ahmed, Z; Taylor, SD

> <Institution>
University of Waterloo

> <Link to Ligand in BindingDB>
http://www.bindingdb.org/bind/chemsearch/marvin/MolStructure.jsp?monomerid=50243184

> <Link to Ligand-Target Pair in BindingDB>
http://www.bindingdb.org/jsp/dbsearch/PrimarySearch_ki.jsp?energyterm=kJ/mole&tag=pol&polymerid=2622&target=Tyrosine-protein+phosphatase+non-receptor+type+1&column=ki&startPg=0&Increment=50&submit=Sea
rch
http://www.bindingdb.org/jsp/dbsearch/PrimarySearch_ki.jsp?energyterm=kJ/mole&tag=r21&monomerid=50243184&enzyme=Tyrosine-protein+phosphatase+non-receptor+type+1&column=ki&startPg=0&Increment=50&submit
=Search

> <PubChem CID of Ligand>
44560646

> <PubChem SID of Ligand>
104099506

> <ZINC ID of Ligand>
ZINC49803450

> <Number of Protein Chains in Target (bigger than 1 implies a multichain complex)>
1

> <BindingDB Target Chain Sequence>
MEMEKEFEQIDKSGSWAAIYQDIRHEASDFPCRVAKLPKNKNRNRYRDVSPFDHSRIKLHQEDNDYINASLIKMEEAQRSYILTQGPLPNTCGHFWEMVWEQKSRGVVMLNRVMEKGSLKCAQYWPQKEEKEMIFEDTNLKLTLISEDIKSYYTVRQLELENLTTQETREILHFHYTTWPDFGVPESPASFLNFLFKVRE
SGSLSPEHGPVVVHCSAGIGRSGTFCLADTCLLLMDKRKDPSSVDIKKVLLEMRKFRMGLIQTADQLRFSYLAVIEGAKFIMGDSSVQDQWKELSHEDLEPPPEHIPPPPRPPKRILEPHNGKCREFFPNHQWVKEETQEDKDCPIKEEKGSPLNAAPYGIESMSQDTEVRSRVVGGSLRGAQAASPAKGEPSLPEKDED
HALSYWKPFLVNMCVATVLTAGAYLCYRFLFNSNT

> <PDB ID(s) of Target Chain>
1BZJ,1G7G,1GFY,1JF7,1KAK,1KAV,1LQF,1NL9,1NNY,1NO6,1NZ7,1OEM,1OEO,1OES,1OET,1OEU,1OEV,1ONY,1ONZ,1PH0,1PXH,1PYN,1Q1M,1Q6J,1Q6M,1Q6N,1Q6P,1Q6S,1Q6T,1QXK,1SUG,1T48,1T49,1T4J,1WAX,1XBO,2AZR,2B07,2BGD,2BGE,
2CM2,2CM3,2CM7,2CM8,2CMA,2CMB,2CMC,2CNE,2CNF,2CNG,2CNH,2CNI,2F6T,2F6V,2F6W,2F6Y,2F6Z,2F70,2F71,2FJN,2H4G,2H4K,2HB1,2HNP,2HNQ,2QBP,2QBQ,2QBR,2QBS,2VEU,2VEV,2VEW,2VEX,2VEY,2ZMM,2ZN7,3A5J,3CWE,3D9C,3EAX,
3EB1,3EU0,3I7Z,3I80,3SME,4BJO,4I8N,4QBW,4Y14,5K9V,5K9W,5KA0,5KA1,5T19,6B90,6NTP,6W30,7KEY,7KLX,7LFO,7MN9,7MNA,8DU7,8G65,8G67,8G68,8G69,8G6A,8SKL

> <UniProt (SwissProt) Recommended Name of Target Chain>
Tyrosine-protein phosphatase non-receptor type 1

> <UniProt (SwissProt) Entry Name of Target Chain>
PTN1_HUMAN

> <UniProt (SwissProt) Primary ID of Target Chain>
P18031

> <UniProt (SwissProt) Secondary ID(s) of Target Chain>
Q5TGD8 Q9BQV9 Q9NQQ4

$$$$
Molecule
  SciTegic10242319433D

100106  0  0  0  0            999 V2000
    8.5657  -12.6653   -0.6718 F   0  0
    9.3325  -12.2417    0.3963 C   0  0
    8.7519  -12.7370    1.5414 F   0  0
   -1.5170    1.7418    0.1346 N   0  0
   -2.6560    1.1646    0.2300 C   0  0
   -2.7537   -0.3127    0.3057 C   0  0
   -1.6553   -1.0706    0.2996 C   0  0
   -0.3537   -0.4323    0.2058 C   0  0
    0.7697   -1.1561    0.2244 C   0  0
    2.0867   -0.5021    0.1069 C   0  0
    2.1352    0.8317   -0.0155 C   0  0
    0.8691    1.6299   -0.0069 C   0  0
   -0.3072    1.0088    0.1053 C   0  0
    0.9155    3.2594   -0.1004 P   0  0
   -0.2966    3.7909   -0.9142 O   0  0
    0.8234    3.8392    1.3342 O   0  0
    2.1018    3.6694   -0.6745 O   0  0
   -3.9116    2.0231    0.3177 C   0  0  2  0  0  0
   -5.1865    1.1031   -0.0659 C   0  0
   -6.6628    1.6775    0.0139 C   0  0
   -7.6549    0.5054   -0.0966 C   0  0
   -6.9923    2.6373   -1.1519 C   0  0
   -3.6140    3.2524   -0.4201 O   0  0
   -4.4176    4.3824   -0.0340 C   0  0
    3.3440   -1.3502    0.0875 C   0  0
    4.6390   -0.7694   -0.2735 C   0  0
    5.7292   -1.5431   -0.3616 C   0  0
    5.6912   -3.0073   -0.0757 C   0  0
    4.5121   -3.5233    0.2878 C   0  0
    3.2854   -2.6589    0.3597 C   0  0
    7.0776   -3.8233   -0.2786 C   0  0
    7.6081   -5.1883    0.4450 C   0  0  1  0  0  0
    8.8039   -6.2764    0.0952 C   0  0
    6.5739   -6.1103   -0.2909 C   0  0
    6.7756   -6.6441   -1.6627 C   0  0
    5.8598   -7.4566   -2.2006 C   0  0
    4.6432   -7.8080   -1.4551 C   0  0
    4.4555   -7.3270   -0.2306 C   0  0
    5.4651   -6.4605    0.3723 C   0  0
    8.9231   -7.8578    0.3492 C   0  0
   10.0704   -8.5412   -0.3191 C   0  0
   10.2215   -9.8684   -0.2857 C   0  0
    9.2514  -10.6980    0.4212 C   0  0
    8.2299  -10.1028    1.0518 C   0  0
    8.0506   -8.6155    1.0204 C   0  0
   10.8675  -12.8910    0.1745 P   0  0
   10.7592  -14.2687    0.1363 O   0  0
   11.7887  -12.4919    1.3511 O   0  0
   11.4901  -12.4119   -1.1636 O   0  0
    9.0265   -4.3888   -0.0597 N   0  0
   10.1320   -4.9899   -0.7590 N   0  0
   11.0760   -4.2211   -0.9547 N   0  0
   10.7945   -2.9648   -0.4440 C   0  0
    9.5387   -2.9780    0.1590 C   0  0
   11.5782   -1.8915   -0.4995 C   0  0
   11.0904   -0.6461    0.1082 C   0  0
    9.8983   -0.6312    0.7144 C   0  0
    9.0715   -1.8613    0.7597 C   0  0
   -3.7340   -0.7854    0.3670 H   0  0
   -1.7339   -2.1558    0.3643 H   0  0
    0.7123   -2.2397    0.3274 H   0  0
    3.0963    1.3350   -0.1213 H   0  0
   -1.1892    3.4817   -0.4558 H   0  0
    0.8490    4.8880    1.2907 H   0  0
   -4.0290    2.3040    1.3643 H   0  0
   -5.0357    0.7787   -1.0955 H   0  0
   -5.1546    0.2380    0.5965 H   0  0
   -6.8061    2.1914    0.9644 H   0  0
   -8.6749    0.8858   -0.0432 H   0  0
   -7.4850   -0.1935    0.7225 H   0  0
   -7.5081   -0.0071   -1.0474 H   0  0
   -8.0147    3.0000   -1.0468 H   0  0
   -6.8909    2.1075   -2.0991 H   0  0
   -6.3039    3.4822   -1.1332 H   0  0
   -4.1335    5.2509   -0.6282 H   0  0
   -4.2585    4.5979    1.0226 H   0  0
   -5.4701    4.1553   -0.2037 H   0  0
    4.7164    0.2996   -0.4719 H   0  0
    6.6760   -1.0877   -0.6518 H   0  0
    4.4403   -4.5825    0.5346 H   0  0
    2.3310   -3.1057    0.6384 H   0  0
    7.8528   -3.0885   -0.0611 H   0  0
    7.0917   -4.0632   -1.3417 H   0  0
    8.9312   -6.1797   -0.9830 H   0  0
    9.6781   -5.8686    0.6028 H   0  0
    7.6672   -6.3743   -2.2287 H   0  0
    6.0170   -7.8616   -3.2003 H   0  0
    3.8963   -8.4618   -1.9055 H   0  0
    3.5505   -7.5784    0.3225 H   0  0
    5.3121   -6.0904    1.3861 H   0  0
   10.8072   -7.9388   -0.8504 H   0  0
   11.0709  -10.3321   -0.7874 H   0  0
    7.5133  -10.7143    1.6000 H   0  0
    7.2125   -8.1538    1.5425 H   0  0
   11.3769  -12.8398    2.2522 H   0  0
   12.4398  -12.8437   -1.2827 H   0  0
   12.5546   -1.9348   -0.9821 H   0  0
   11.6957    0.2593    0.0654 H   0  0
    9.5340    0.2866    1.1759 H   0  0
    8.1068   -1.8647    1.2671 H   0  0
  2  1  1  0
  3  2  1  0
  4  5  2  0
  5  6  1  0
  6  7  2  0
  7  8  1  0
  8  9  2  0
  9 10  1  0
 10 11  2  0
 11 12  1  0
 12 13  2  0
  4 13  1  0
  8 13  1  0
 14 15  1  0
 14 16  1  0
 14 17  2  0
 12 14  1  0
 18 19  1  0
 19 20  1  0
 20 21  1  0
 20 22  1  0
 23 24  1  0
 18 23  1  0
  5 18  1  0
 25 26  1  0
 26 27  2  0
 27 28  1  0
 28 29  2  0
 29 30  1  0
 25 30  2  0
 31 32  1  0
 32 33  1  0
 34 35  1  0
 35 36  2  0
 36 37  1  0
 37 38  2  0
 38 39  1  0
 34 39  2  0
 32 34  1  0
 40 41  1  0
 41 42  2  0
 42 43  1  0
 43 44  2  0
 44 45  1  0
 40 45  2  0
 46 47  2  0
 46 48  1  0
 46 49  1  0
  2 46  1  0
 43  2  1  0
 33 40  1  0
 50 51  1  0
 51 52  2  0
 52 53  1  0
 53 54  1  0
 50 54  1  0
 55 56  1  0
 56 57  2  0
 57 58  1  0
 54 58  2  0
 53 55  2  0
 32 50  1  0
 28 31  1  0
 10 25  1  0
  6 59  1  0
  7 60  1  0
  9 61  1  0
 11 62  1  0
 15 63  1  0
 16 64  1  0
 18 65  1  0
 19 66  1  0
 19 67  1  0
 20 68  1  0
 21 69  1  0
 21 70  1  0
 21 71  1  0
 22 72  1  0
 22 73  1  0
 22 74  1  0
 24 75  1  0
 24 76  1  0
 24 77  1  0
 26 78  1  0
 27 79  1  0
 29 80  1  0
 30 81  1  0
 31 82  1  0
 31 83  1  0
 33 84  1  0
 33 85  1  0
 35 86  1  0
 36 87  1  0
 37 88  1  0
 38 89  1  0
 39 90  1  0
 41 91  1  0
 42 92  1  0
 44 93  1  0
 45 94  1  0
 48 95  1  0
 49 96  1  0
 55 97  1  0
 56 98  1  0
 57 99  1  0
 58100  1  0
M  END
> <Name>
Molecule

> <Clean Energy>
228.275

> <From>
www.bindingDB.org

> <BindingDB Reactant_set_id>
51217039

> <Ligand InChI>
InChI=1S/C43H42F2N4O7P2/c1-28(2)23-39(56-3)37-22-19-32-24-33(25-40(41(32)46-37)57(50,51)52)31-17-13-29(14-18-31)26-42(34-9-5-4-6-10-34,49-38-12-8-7-11-36(38)47-48-49)27-30-15-20-35(21-16-30)43(44,45)5
8(53,54)55/h4-22,24-25,28,39H,23,26-27H2,1-3H3,(H2,50,51,52)(H2,53,54,55)/t39-,42-/m0/s1

> <Ligand InChI Key>
USHZWXCUJLENMD-PYLAIEKPSA-N

> <BindingDB MonomerID>
50500147

> <BindingDB Ligand Name>
CHEMBL3746639

> <Target Name>
Tyrosine-protein phosphatase non-receptor type 1

> <Target Source Organism According to Curator or DataSource>
Homo sapiens

> <IC50 (nM)>
7

> <Curation/DataSource>
ChEMBL

> <Article DOI>
10.1021/acs.jmedchem.5b00586

> <BindingDB Entry DOI>
10.7270/Q24T6NC6

> <PMID>
26230724

> <Authors>
Kozakov, D; Hall, DR; Napoleon, RL; Yueh, C; Whitty, A; Vajda, S

> <Institution>
Stony Brook University

> <Link to Ligand in BindingDB>
http://www.bindingdb.org/bind/chemsearch/marvin/MolStructure.jsp?monomerid=50500147

> <Link to Ligand-Target Pair in BindingDB>
http://www.bindingdb.org/jsp/dbsearch/PrimarySearch_ki.jsp?energyterm=kJ/mole&tag=pol&polymerid=2622&target=Tyrosine-protein+phosphatase+non-receptor+type+1&column=ki&startPg=0&Increment=50&submit=Sea
rch
http://www.bindingdb.org/jsp/dbsearch/PrimarySearch_ki.jsp?energyterm=kJ/mole&tag=r21&monomerid=50500147&enzyme=Tyrosine-protein+phosphatase+non-receptor+type+1&column=ki&startPg=0&Increment=50&submit
=Search

> <PubChem CID of Ligand>
21145371

> <PubChem SID of Ligand>
433912048

> <Number of Protein Chains in Target (bigger than 1 implies a multichain complex)>
1

> <BindingDB Target Chain Sequence>
MEMEKEFEQIDKSGSWAAIYQDIRHEASDFPCRVAKLPKNKNRNRYRDVSPFDHSRIKLHQEDNDYINASLIKMEEAQRSYILTQGPLPNTCGHFWEMVWEQKSRGVVMLNRVMEKGSLKCAQYWPQKEEKEMIFEDTNLKLTLISEDIKSYYTVRQLELENLTTQETREILHFHYTTWPDFGVPESPASFLNFLFKVRE
SGSLSPEHGPVVVHCSAGIGRSGTFCLADTCLLLMDKRKDPSSVDIKKVLLEMRKFRMGLIQTADQLRFSYLAVIEGAKFIMGDSSVQDQWKELSHEDLEPPPEHIPPPPRPPKRILEPHNGKCREFFPNHQWVKEETQEDKDCPIKEEKGSPLNAAPYGIESMSQDTEVRSRVVGGSLRGAQAASPAKGEPSLPEKDED
HALSYWKPFLVNMCVATVLTAGAYLCYRFLFNSNT

> <PDB ID(s) of Target Chain>
1BZJ,1G7G,1GFY,1JF7,1KAK,1KAV,1LQF,1NL9,1NNY,1NO6,1NZ7,1OEM,1OEO,1OES,1OET,1OEU,1OEV,1ONY,1ONZ,1PH0,1PXH,1PYN,1Q1M,1Q6J,1Q6M,1Q6N,1Q6P,1Q6S,1Q6T,1QXK,1SUG,1T48,1T49,1T4J,1WAX,1XBO,2AZR,2B07,2BGD,2BGE,
2CM2,2CM3,2CM7,2CM8,2CMA,2CMB,2CMC,2CNE,2CNF,2CNG,2CNH,2CNI,2F6T,2F6V,2F6W,2F6Y,2F6Z,2F70,2F71,2FJN,2H4G,2H4K,2HB1,2HNP,2HNQ,2QBP,2QBQ,2QBR,2QBS,2VEU,2VEV,2VEW,2VEX,2VEY,2ZMM,2ZN7,3A5J,3CWE,3D9C,3EAX,
3EB1,3EU0,3I7Z,3I80,3SME,4BJO,4I8N,4QBW,4Y14,5K9V,5K9W,5KA0,5KA1,5T19,6B90,6NTP,6W30,7KEY,7KLX,7LFO,7MN9,7MNA,8DU7,8G65,8G67,8G68,8G69,8G6A,8SKL

> <UniProt (SwissProt) Recommended Name of Target Chain>
Tyrosine-protein phosphatase non-receptor type 1

> <UniProt (SwissProt) Entry Name of Target Chain>
PTN1_HUMAN

> <UniProt (SwissProt) Primary ID of Target Chain>
P18031

> <UniProt (SwissProt) Secondary ID(s) of Target Chain>
Q5TGD8 Q9BQV9 Q9NQQ4

$$$$
Molecule
  SciTegic10242319433D

 42 44  0  0  0  0            999 V2000
   -5.4495   -9.0749    0.0063 C   0  0
   -5.3901  -10.3617   -0.3807 C   0  0
   -4.0610  -11.0344   -0.4195 C   0  0
   -4.2143   -8.3718    0.3770 C   0  0
   -3.0373   -8.9886    0.3206 C   0  0
   -2.9498  -10.3679   -0.0866 C   0  0
   -1.6734  -10.9864   -0.1519 N   0  0
   -0.5991  -10.3400    0.1261 C   0  0
   -0.6506   -8.9211    0.5443 C   0  0
   -1.8146   -8.2814    0.6450 C   0  0
   -6.6307  -11.1548   -0.8569 C   0  0
   -7.7473  -11.5223    0.3496 P   0  0
   -8.9218  -12.3033   -0.3023 O   0  0
   -8.2570  -10.3878    0.9418 O   0  0
   -7.0901  -12.4081    1.4326 O   0  0
   -6.2071  -12.3421   -1.4140 F   0  0
   -7.3054  -10.4022   -1.7940 F   0  0
    0.7167  -11.0198    0.0261 C   0  0
   -7.0794   -8.0841    0.0471 Br  0  0
    1.8601  -10.3356    0.1558 C   0  0
    3.1661  -11.0345    0.0756 C   0  0
    3.2007  -12.3639   -0.0041 C   0  0
    4.4858  -13.0658   -0.0774 C   0  0
    5.6257  -12.3780   -0.0682 C   0  0
    5.6016  -10.9173    0.0131 C   0  0
    4.4337  -10.2713    0.0837 C   0  0
    6.8677  -10.1757    0.0120 C   0  0
    8.0766  -10.8669   -0.0524 O   0  0
    6.8657   -8.9409    0.0613 O   0  0
   -3.9935  -12.0794   -0.7221 H   0  0
   -4.2629   -7.3326    0.7020 H   0  0
    0.2753   -8.3932    0.7725 H   0  0
   -1.8470   -7.2405    0.9668 H   0  0
   -9.6205  -12.5662    0.4361 H   0  0
   -6.3147  -11.8749    1.8984 H   0  0
    0.7526  -12.0939   -0.1561 H   0  0
    1.8313   -9.2586    0.3213 H   0  0
    2.2704  -12.9318   -0.0150 H   0  0
    4.5080  -14.1538   -0.1396 H   0  0
    6.5788  -12.9042   -0.1214 H   0  0
    4.4150   -9.1833    0.1473 H   0  0
    8.6005  -10.5772   -0.9151 H   0  0
 12 14  2  0
  6  7  1  0
 12 15  1  0
  1  2  2  0
 11 16  1  0
  7  8  2  0
 11 17  1  0
  5  4  2  0
  8 18  1  0
  8  9  1  0
  1 19  1  0
  4  1  1  0
 18 20  2  0
  9 10  2  0
 20 21  1  0
 10  5  1  0
 21 22  2  0
 22 23  1  0
  2 11  1  0
 23 24  2  0
  2  3  1  0
 24 25  1  0
 11 12  1  0
 25 26  2  0
 26 21  1  0
  5  6  1  0
 12 13  1  0
  3  6  2  0
 27 28  1  0
 27 29  2  0
 25 27  1  0
  3 30  1  0
  4 31  1  0
  9 32  1  0
 10 33  1  0
 13 34  1  0
 15 35  1  0
 18 36  1  0
 20 37  1  0
 22 38  1  0
 23 39  1  0
 24 40  1  0
 26 41  1  0
 28 42  1  0
M  END
> <Name>
Molecule

> <Clean Energy>
11.8935

> <From>
www.bindingDB.org

> <BindingDB Reactant_set_id>
50859545

> <Ligand InChI>
InChI=1S/C19H13BrF2NO5P/c20-16-9-12-5-7-14(6-4-11-2-1-3-13(8-11)18(24)25)23-17(12)10-15(16)19(21,22)29(26,27)28/h1-10H,(H,24,25)(H2,26,27,28)/b6-4+

> <Ligand InChI Key>
NSFPAXHJZWJVLM-GQCTYLIASA-N

> <BindingDB MonomerID>
50373451

> <BindingDB Ligand Name>
CHEMBL411295

> <Target Name>
Tyrosine-protein phosphatase non-receptor type 1

> <Target Source Organism According to Curator or DataSource>
Homo sapiens

> <IC50 (nM)>
7

> <Curation/DataSource>
ChEMBL

> <Article DOI>
10.1016/j.bmcl.2008.04.064

> <BindingDB Entry DOI>
10.7270/Q24M95DX

> <PMID>
18477508

> <Authors>
Han, Y; Belley, M; Bayly, CI; Colucci, J; Dufresne, C; Giroux, A; Lau, CK; Leblanc, Y; McKay, D; Therien, M; Wilson, MC; Skorey, K; Chan, CC; Scapin, G; Kennedy, BP

> <Institution>
Merck Frosst Centre for Therapeutic Research

> <Link to Ligand in BindingDB>
http://www.bindingdb.org/bind/chemsearch/marvin/MolStructure.jsp?monomerid=50373451

> <Link to Ligand-Target Pair in BindingDB>
http://www.bindingdb.org/jsp/dbsearch/PrimarySearch_ki.jsp?energyterm=kJ/mole&tag=pol&polymerid=2622&target=Tyrosine-protein+phosphatase+non-receptor+type+1&column=ki&startPg=0&Increment=50&submit=Sea
rch
http://www.bindingdb.org/jsp/dbsearch/PrimarySearch_ki.jsp?energyterm=kJ/mole&tag=r21&monomerid=50373451&enzyme=Tyrosine-protein+phosphatase+non-receptor+type+1&column=ki&startPg=0&Increment=50&submit
=Search

> <PubChem CID of Ligand>
44449628

> <PubChem SID of Ligand>
160852552

> <ChEMBL ID of Ligand>
CHEMBL411295

> <ZINC ID of Ligand>
ZINC29047908

> <Number of Protein Chains in Target (bigger than 1 implies a multichain complex)>
1

> <BindingDB Target Chain Sequence>
MEMEKEFEQIDKSGSWAAIYQDIRHEASDFPCRVAKLPKNKNRNRYRDVSPFDHSRIKLHQEDNDYINASLIKMEEAQRSYILTQGPLPNTCGHFWEMVWEQKSRGVVMLNRVMEKGSLKCAQYWPQKEEKEMIFEDTNLKLTLISEDIKSYYTVRQLELENLTTQETREILHFHYTTWPDFGVPESPASFLNFLFKVRE
SGSLSPEHGPVVVHCSAGIGRSGTFCLADTCLLLMDKRKDPSSVDIKKVLLEMRKFRMGLIQTADQLRFSYLAVIEGAKFIMGDSSVQDQWKELSHEDLEPPPEHIPPPPRPPKRILEPHNGKCREFFPNHQWVKEETQEDKDCPIKEEKGSPLNAAPYGIESMSQDTEVRSRVVGGSLRGAQAASPAKGEPSLPEKDED
HALSYWKPFLVNMCVATVLTAGAYLCYRFLFNSNT

> <PDB ID(s) of Target Chain>
1BZJ,1G7G,1GFY,1JF7,1KAK,1KAV,1LQF,1NL9,1NNY,1NO6,1NZ7,1OEM,1OEO,1OES,1OET,1OEU,1OEV,1ONY,1ONZ,1PH0,1PXH,1PYN,1Q1M,1Q6J,1Q6M,1Q6N,1Q6P,1Q6S,1Q6T,1QXK,1SUG,1T48,1T49,1T4J,1WAX,1XBO,2AZR,2B07,2BGD,2BGE,
2CM2,2CM3,2CM7,2CM8,2CMA,2CMB,2CMC,2CNE,2CNF,2CNG,2CNH,2CNI,2F6T,2F6V,2F6W,2F6Y,2F6Z,2F70,2F71,2FJN,2H4G,2H4K,2HB1,2HNP,2HNQ,2QBP,2QBQ,2QBR,2QBS,2VEU,2VEV,2VEW,2VEX,2VEY,2ZMM,2ZN7,3A5J,3CWE,3D9C,3EAX,
3EB1,3EU0,3I7Z,3I80,3SME,4BJO,4I8N,4QBW,4Y14,5K9V,5K9W,5KA0,5KA1,5T19,6B90,6NTP,6W30,7KEY,7KLX,7LFO,7MN9,7MNA,8DU7,8G65,8G67,8G68,8G69,8G6A,8SKL

> <UniProt (SwissProt) Recommended Name of Target Chain>
Tyrosine-protein phosphatase non-receptor type 1

> <UniProt (SwissProt) Entry Name of Target Chain>
PTN1_HUMAN

> <UniProt (SwissProt) Primary ID of Target Chain>
P18031

> <UniProt (SwissProt) Secondary ID(s) of Target Chain>
Q5TGD8 Q9BQV9 Q9NQQ4

$$$$
Molecule
  SciTegic10242319433D

 69 73  0  0  0  0            999 V2000
    1.6855  -15.6167   -1.1671 O   0  0
    1.8200  -16.6210    0.0054 P   0  0
    1.8137  -15.9515    1.2127 O   0  0
    3.1964  -18.2183   -1.3281 F   0  0
    3.2283  -17.4981   -0.1504 C   0  0
    3.2931  -18.4397    0.8586 F   0  0
   10.7078  -18.1757   -0.2651 C   0  0
    9.4174  -17.1441   -0.2467 C   0  0
    9.5854  -15.8243   -0.1024 C   0  0
    8.3687  -14.9197   -0.0084 C   0  0
    8.0416  -17.5805   -0.2921 C   0  0
    6.9855  -16.8200   -0.2019 C   0  0
    7.1280  -15.4388   -0.0528 C   0  0
    5.9127  -14.6261    0.0635 C   0  0
    4.6966  -15.2072    0.0364 C   0  0
    4.5669  -16.7105   -0.1221 C   0  0
    5.6692  -17.4330   -0.2354 C   0  0
    3.6251  -14.4251    0.1542 F   0  0
    0.6150  -17.5981   -0.0321 O   0  0
    8.4393  -19.9235   -0.5897 O   0  0
    9.2583  -20.3202    0.6000 S   0  0
    9.0701  -19.3854    1.7804 O   0  0
   10.6072  -19.7871   -0.4100 N   0  0
   11.9817  -20.2984   -0.0272 C   0  0
    7.9424  -21.4780    0.5124 C   0  0
    7.9815  -22.8004    0.4123 C   0  0
    6.6822  -23.5199    0.2625 C   0  0
    5.5249  -22.8368    0.2093 C   0  0
    5.5214  -21.4195    0.3200 C   0  0
    6.6596  -20.7834    0.4708 C   0  0
   12.1755  -21.8067   -0.0863 C   0  0
   13.3794  -22.3369    0.1478 C   0  0
   13.5558  -23.8040    0.1380 C   0  0
   12.5043  -24.5902   -0.0938 C   0  0
   11.2112  -24.0002   -0.3612 C   0  0
   11.0653  -22.6807   -0.3658 C   0  0
   12.6192  -26.0445   -0.0656 C   0  0
   13.7673  -26.6936    0.1247 C   0  0
   13.3084  -28.2811    0.0856 S   0  0
   11.7163  -28.1160   -0.1529 N   0  0
   11.4546  -26.9206   -0.2215 N   0  0
    4.2948  -23.4554    0.0554 O   0  0
    4.4100  -24.8561   -0.0342 C   0  0
    3.0317  -25.4126   -0.1248 C   0  0
    2.8435  -26.7839   -0.1616 O   0  0
    2.0584  -24.6490   -0.1410 O   0  0
    2.5036  -14.9585   -1.1604 H   0  0
   11.3306  -17.8474   -1.0973 H   0  0
   11.2333  -18.0006    0.6738 H   0  0
   10.5886  -15.4011   -0.0525 H   0  0
    8.5015  -13.8428    0.0956 H   0  0
    7.8687  -18.6498   -0.4136 H   0  0
    5.9933  -13.5446    0.1726 H   0  0
    5.5878  -18.5132   -0.3566 H   0  0
   -0.2790  -17.0560    0.0650 H   0  0
   12.7062  -19.8429   -0.7022 H   0  0
   12.1839  -19.9766    0.9944 H   0  0
    8.9274  -23.3414    0.4385 H   0  0
    6.6713  -24.6078    0.1957 H   0  0
    4.5829  -20.8666    0.2800 H   0  0
    6.6462  -19.6978    0.5683 H   0  0
   14.2316  -21.6870    0.3461 H   0  0
   14.5382  -24.2401    0.3189 H   0  0
   10.3527  -24.6418   -0.5599 H   0  0
   10.0878  -22.2510   -0.5849 H   0  0
   14.7648  -26.2791    0.2704 H   0  0
    4.9798  -25.1266   -0.9231 H   0  0
    4.9112  -25.2458    0.8518 H   0  0
    3.3350  -27.1828   -0.9993 H   0  0
 11  8  1  0
  5  4  1  0
 12 13  1  0
  6  5  1  0
 13 14  1  0
  7  8  1  0
 14 15  2  0
 15 16  1  0
  8  9  2  0
 16 17  2  0
 17 12  1  0
  2  1  1  0
 15 18  1  0
 16  5  1  0
  5  2  1  0
  9 10  1  0
  2 19  1  0
 10 13  2  0
  3  2  2  0
 12 11  2  0
 23  7  1  0
 21 20  2  0
 23 21  1  0
 21 25  1  0
 22 21  2  0
 23 24  1  0
 24 31  1  0
 25 26  2  0
 30 25  1  0
 26 27  1  0
 27 28  2  0
 28 29  1  0
 28 42  1  0
 29 30  2  0
 31 32  2  0
 36 31  1  0
 32 33  1  0
 33 34  2  0
 34 35  1  0
 34 37  1  0
 35 36  2  0
 37 38  2  0
 41 37  1  0
 38 39  1  0
 39 40  1  0
 40 41  2  0
 42 43  1  0
 43 44  1  0
 44 45  1  0
 44 46  2  0
  1 47  1  0
  7 48  1  0
  7 49  1  0
  9 50  1  0
 10 51  1  0
 11 52  1  0
 14 53  1  0
 17 54  1  0
 19 55  1  0
 24 56  1  0
 24 57  1  0
 26 58  1  0
 27 59  1  0
 29 60  1  0
 30 61  1  0
 32 62  1  0
 33 63  1  0
 35 64  1  0
 36 65  1  0
 38 66  1  0
 43 67  1  0
 43 68  1  0
 45 69  1  0
M  END
> <Name>
Molecule

> <Clean Energy>
124.016

> <From>
www.bindingDB.org

> <BindingDB Reactant_set_id>
50713199

> <Ligand InChI>
InChI=1S/C29H23F3N3O8PS2/c30-26-13-21-6-3-19(11-22(21)12-25(26)29(31,32)44(38,39)40)15-35(14-18-1-4-20(5-2-18)27-17-45-34-33-27)46(41,42)24-9-7-23(8-10-24)43-16-28(36)37/h1-13,17H,14-16H2,(H,36,37)(H2
,38,39,40)

> <Ligand InChI Key>
SSOMGKXRFNKWLO-UHFFFAOYSA-N

> <BindingDB MonomerID>
50362195

> <BindingDB Ligand Name>
CHEMBL1938828

> <Target Name>
Tyrosine-protein phosphatase non-receptor type 1

> <Target Source Organism According to Curator or DataSource>
Homo sapiens

> <IC50 (nM)>
9

> <Curation/DataSource>
ChEMBL

> <Article DOI>
10.1016/j.bmcl.2011.11.122

> <BindingDB Entry DOI>
10.7270/Q2ZS2X05

> <PMID>
22189136

> <Authors>
Patel, D; Jain, M; Shah, SR; Bahekar, R; Jadav, P; Joharapurkar, A; Dhanesha, N; Shaikh, M; Sairam, KV; Kapadnis, P

> <Institution>
M.S. University of Baroda

> <Link to Ligand in BindingDB>
http://www.bindingdb.org/bind/chemsearch/marvin/MolStructure.jsp?monomerid=50362195

> <Link to Ligand-Target Pair in BindingDB>
http://www.bindingdb.org/jsp/dbsearch/PrimarySearch_ki.jsp?energyterm=kJ/mole&tag=pol&polymerid=2622&target=Tyrosine-protein+phosphatase+non-receptor+type+1&column=ki&startPg=0&Increment=50&submit=Sea
rch
http://www.bindingdb.org/jsp/dbsearch/PrimarySearch_ki.jsp?energyterm=kJ/mole&tag=r21&monomerid=50362195&enzyme=Tyrosine-protein+phosphatase+non-receptor+type+1&column=ki&startPg=0&Increment=50&submit
=Search

> <PubChem CID of Ligand>
56949846

> <PubChem SID of Ligand>
136966257

> <ChEMBL ID of Ligand>
CHEMBL1938828

> <ZINC ID of Ligand>
ZINC82164765

> <Number of Protein Chains in Target (bigger than 1 implies a multichain complex)>
1

> <BindingDB Target Chain Sequence>
MEMEKEFEQIDKSGSWAAIYQDIRHEASDFPCRVAKLPKNKNRNRYRDVSPFDHSRIKLHQEDNDYINASLIKMEEAQRSYILTQGPLPNTCGHFWEMVWEQKSRGVVMLNRVMEKGSLKCAQYWPQKEEKEMIFEDTNLKLTLISEDIKSYYTVRQLELENLTTQETREILHFHYTTWPDFGVPESPASFLNFLFKVRE
SGSLSPEHGPVVVHCSAGIGRSGTFCLADTCLLLMDKRKDPSSVDIKKVLLEMRKFRMGLIQTADQLRFSYLAVIEGAKFIMGDSSVQDQWKELSHEDLEPPPEHIPPPPRPPKRILEPHNGKCREFFPNHQWVKEETQEDKDCPIKEEKGSPLNAAPYGIESMSQDTEVRSRVVGGSLRGAQAASPAKGEPSLPEKDED
HALSYWKPFLVNMCVATVLTAGAYLCYRFLFNSNT

> <PDB ID(s) of Target Chain>
1BZJ,1G7G,1GFY,1JF7,1KAK,1KAV,1LQF,1NL9,1NNY,1NO6,1NZ7,1OEM,1OEO,1OES,1OET,1OEU,1OEV,1ONY,1ONZ,1PH0,1PXH,1PYN,1Q1M,1Q6J,1Q6M,1Q6N,1Q6P,1Q6S,1Q6T,1QXK,1SUG,1T48,1T49,1T4J,1WAX,1XBO,2AZR,2B07,2BGD,2BGE,
2CM2,2CM3,2CM7,2CM8,2CMA,2CMB,2CMC,2CNE,2CNF,2CNG,2CNH,2CNI,2F6T,2F6V,2F6W,2F6Y,2F6Z,2F70,2F71,2FJN,2H4G,2H4K,2HB1,2HNP,2HNQ,2QBP,2QBQ,2QBR,2QBS,2VEU,2VEV,2VEW,2VEX,2VEY,2ZMM,2ZN7,3A5J,3CWE,3D9C,3EAX,
3EB1,3EU0,3I7Z,3I80,3SME,4BJO,4I8N,4QBW,4Y14,5K9V,5K9W,5KA0,5KA1,5T19,6B90,6NTP,6W30,7KEY,7KLX,7LFO,7MN9,7MNA,8DU7,8G65,8G67,8G68,8G69,8G6A,8SKL

> <UniProt (SwissProt) Recommended Name of Target Chain>
Tyrosine-protein phosphatase non-receptor type 1

> <UniProt (SwissProt) Entry Name of Target Chain>
PTN1_HUMAN

> <UniProt (SwissProt) Primary ID of Target Chain>
P18031

> <UniProt (SwissProt) Secondary ID(s) of Target Chain>
Q5TGD8 Q9BQV9 Q9NQQ4

$$$$
Molecule
  SciTegic10242319433D

 59 63  0  0  0  0            999 V2000
   -1.0046   -7.7868   -0.3655 C   0  0
   -1.0519   -9.0914   -0.6459 C   0  0
    0.1951   -9.9147   -0.5821 C   0  0
    1.3681   -9.3496   -0.2709 C   0  0
    1.3807   -7.9134    0.0277 C   0  0
    0.2546   -7.2361   -0.0191 C   0  0
   -2.2786   -6.8833   -0.5358 C   0  0
    2.6531  -10.1902   -0.2853 C   0  0  2  0  0  0
   -2.4664   -5.4406    0.2422 C   0  0  2  0  0  0
   -3.7912   -4.7716   -0.1126 N   0  0
   -1.3202   -4.3851    0.0292 C   0  0
    0.0413   -4.7096    0.0773 N   0  0
   -1.4714   -3.1072   -0.1088 N   0  0
   -0.1484   -2.5711   -0.1729 C   0  0
    0.7327   -3.6025   -0.0522 C   0  0
    2.0506   -3.4766   -0.0581 C   0  0
    2.5903   -2.1324   -0.2047 C   0  0
    1.7498   -1.0904   -0.3205 C   0  0
    0.2649   -1.3150   -0.3022 C   0  0
    2.5356  -11.8970    0.1149 S   0  0
    4.1974  -12.1474   -0.0048 N   0  5
    4.8551  -10.9043    0.2319 C   0  0
    3.9181   -9.7136    0.4697 C   0  0
    1.6863  -12.6835   -0.8642 O   0  0
    2.0846  -12.0846    1.5508 O   0  0
    6.0859  -10.7888    0.2455 O   0  0
   -5.2794   -5.3858    0.7053 S   0  0
   -6.8285   -6.1319    0.2060 C   0  0
   -4.8446   -6.7973    0.3970 O   0  0
   -5.9106   -4.3402   -0.1972 O   0  0
   -7.9605   -5.4343    0.3053 C   0  0
   -9.2416   -6.0505   -0.0552 C   0  0
   -9.2795   -7.3126   -0.4778 C   0  0
   -8.0391   -8.0832   -0.5905 C   0  0
   -6.8735   -7.5247   -0.2646 C   0  0
    2.4934   -7.2324    0.3376 F   0  0
  -10.5137   -5.2672    0.0785 C   0  0
  -11.3247   -5.5041   -1.0113 F   0  0
  -10.2463   -3.9241    0.2418 F   0  0
  -11.1887   -5.7381    1.1868 F   0  0
    4.3057   -1.9016   -0.2242 Cl  0  0
   -1.9987   -9.5561   -0.9210 H   0  0
    0.1485  -10.9836   -0.7907 H   0  0
    0.2922   -6.1748    0.2262 H   0  0
   -3.1261   -7.4993   -0.2350 H   0  0
   -2.3496   -6.6617   -1.6007 H   0  0
    2.9563  -10.1870   -1.3323 H   0  0
   -2.4993   -5.6596    1.3095 H   0  0
   -3.9350   -4.8843   -1.1669 H   0  0
    0.4477   -5.6919    0.1988 H   0  0
    2.7042   -4.3430    0.0427 H   0  0
    2.1462   -0.0807   -0.4278 H   0  0
   -0.4394   -0.4878   -0.3906 H   0  0
    3.7199   -9.5640    1.5310 H   0  0
    4.3192   -8.7950    0.0415 H   0  0
   -7.9336   -4.4025    0.6556 H   0  0
  -10.2327   -7.7718   -0.7396 H   0  0
   -8.0691   -9.1147   -0.9415 H   0  0
   -5.9521   -8.1013   -0.3469 H   0  0
  8 20  1  0
  9  7  1  0
  1  2  2  0
  9 10  1  0
  4  5  1  0
 20 21  1  0
 21 22  1  0
 22 23  1  0
  8 23  1  0
  9 11  1  0
 20 24  2  0
 11 12  1  0
 20 25  2  0
 22 26  2  0
  5  6  2  0
 10 27  1  0
 12 15  1  0
 27 28  1  0
 14 13  1  0
 27 29  2  0
 13 11  2  0
 27 30  2  0
  6  1  1  0
 28 31  2  0
  2  3  1  0
 31 32  1  0
 14 15  1  0
 32 33  2  0
  1  7  1  0
 33 34  1  0
 15 16  2  0
 34 35  2  0
 35 28  1  0
  5 36  1  0
 16 17  1  0
 32 37  1  0
  4  8  1  0
 37 38  1  0
 17 18  2  0
 37 39  1  0
  3  4  2  0
 37 40  1  0
 18 19  1  0
 17 41  1  0
 19 14  2  0
  2 42  1  0
  3 43  1  0
  6 44  1  0
  7 45  1  0
  7 46  1  0
  8 47  1  0
  9 48  1  0
 10 49  1  0
 12 50  1  0
 16 51  1  0
 18 52  1  0
 19 53  1  0
 23 54  1  0
 23 55  1  0
 31 56  1  0
 33 57  1  0
 34 58  1  0
 35 59  1  0
M  CHG  1  21  -1
M  END
> <Name>
Molecule

> <Clean Energy>
181.507

> <From>
www.bindingDB.org

> <BindingDB Reactant_set_id>
50350954

> <Ligand InChI>
InChI=1S/C25H19ClF4N4O5S2/c26-15-5-7-19-20(11-15)32-24(31-19)21(33-40(36,37)16-3-1-2-14(10-16)25(28,29)30)9-13-4-6-17(18(27)8-13)22-12-23(35)34-41(22,38)39/h1-8,10-11,21-22,33H,9,12H2,(H2,31,32,34,35)
/p-1/t21-,22?/m0/s1

> <Ligand InChI Key>
CWFXHDKEJALPLL-HMTLIYDFSA-M

> <BindingDB MonomerID>
50189670

> <BindingDB Ligand Name>
5-{4-[(2S)-2-(5-chloro-1H-benzimidazol-2-yl)-2-({[3-(trifluoromethyl)phenyl]sulfonyl}amino)ethyl]-2-fluorophenyl}-3-oxoisothiazolidin-2-ide 1,1-dioxide::CHEMBL377141

> <Target Name>
Tyrosine-protein phosphatase non-receptor type 1

> <Target Source Organism According to Curator or DataSource>
Homo sapiens

> <IC50 (nM)>
10

> <Curation/DataSource>
ChEMBL

> <Article DOI>
10.1021/jm0600904

> <BindingDB Entry DOI>
10.7270/Q2JQ10M8

> <PMID>
16789735

> <Authors>
Combs, AP; Zhu, W; Crawley, ML; Glass, B; Polam, P; Sparks, RB; Modi, D; Takvorian, A; McLaughlin, E; Yue, EW; Wasserman, Z; Bower, M; Wei, M; Rupar, M; Ala, PJ; Reid, BM; Ellis, D; Gonneville, L; Emm
, T; Taylor, N; Yeleswaram, S; Li, Y; Wynn, R; Burn, TC; Hollis, G; Liu, PC; Metcalf, B

> <Institution>
Incyte Corporation

> <Link to Ligand in BindingDB>
http://www.bindingdb.org/bind/chemsearch/marvin/MolStructure.jsp?monomerid=50189670

> <Link to Ligand-Target Pair in BindingDB>
http://www.bindingdb.org/jsp/dbsearch/PrimarySearch_ki.jsp?energyterm=kJ/mole&tag=pol&polymerid=2622&target=Tyrosine-protein+phosphatase+non-receptor+type+1&column=ki&startPg=0&Increment=50&submit=Sea
rch
http://www.bindingdb.org/jsp/dbsearch/PrimarySearch_ki.jsp?energyterm=kJ/mole&tag=r21&monomerid=50189670&enzyme=Tyrosine-protein+phosphatase+non-receptor+type+1&column=ki&startPg=0&Increment=50&submit
=Search

> <PubChem CID of Ligand>
91936150

> <PubChem SID of Ligand>
104073191

> <ChEMBL ID of Ligand>
CHEMBL377141

> <ZINC ID of Ligand>
ZINC36748833

> <Number of Protein Chains in Target (bigger than 1 implies a multichain complex)>
1

> <BindingDB Target Chain Sequence>
MEMEKEFEQIDKSGSWAAIYQDIRHEASDFPCRVAKLPKNKNRNRYRDVSPFDHSRIKLHQEDNDYINASLIKMEEAQRSYILTQGPLPNTCGHFWEMVWEQKSRGVVMLNRVMEKGSLKCAQYWPQKEEKEMIFEDTNLKLTLISEDIKSYYTVRQLELENLTTQETREILHFHYTTWPDFGVPESPASFLNFLFKVRE
SGSLSPEHGPVVVHCSAGIGRSGTFCLADTCLLLMDKRKDPSSVDIKKVLLEMRKFRMGLIQTADQLRFSYLAVIEGAKFIMGDSSVQDQWKELSHEDLEPPPEHIPPPPRPPKRILEPHNGKCREFFPNHQWVKEETQEDKDCPIKEEKGSPLNAAPYGIESMSQDTEVRSRVVGGSLRGAQAASPAKGEPSLPEKDED
HALSYWKPFLVNMCVATVLTAGAYLCYRFLFNSNT

> <PDB ID(s) of Target Chain>
1BZJ,1G7G,1GFY,1JF7,1KAK,1KAV,1LQF,1NL9,1NNY,1NO6,1NZ7,1OEM,1OEO,1OES,1OET,1OEU,1OEV,1ONY,1ONZ,1PH0,1PXH,1PYN,1Q1M,1Q6J,1Q6M,1Q6N,1Q6P,1Q6S,1Q6T,1QXK,1SUG,1T48,1T49,1T4J,1WAX,1XBO,2AZR,2B07,2BGD,2BGE,
2CM2,2CM3,2CM7,2CM8,2CMA,2CMB,2CMC,2CNE,2CNF,2CNG,2CNH,2CNI,2F6T,2F6V,2F6W,2F6Y,2F6Z,2F70,2F71,2FJN,2H4G,2H4K,2HB1,2HNP,2HNQ,2QBP,2QBQ,2QBR,2QBS,2VEU,2VEV,2VEW,2VEX,2VEY,2ZMM,2ZN7,3A5J,3CWE,3D9C,3EAX,
3EB1,3EU0,3I7Z,3I80,3SME,4BJO,4I8N,4QBW,4Y14,5K9V,5K9W,5KA0,5KA1,5T19,6B90,6NTP,6W30,7KEY,7KLX,7LFO,7MN9,7MNA,8DU7,8G65,8G67,8G68,8G69,8G6A,8SKL

> <UniProt (SwissProt) Recommended Name of Target Chain>
Tyrosine-protein phosphatase non-receptor type 1

> <UniProt (SwissProt) Entry Name of Target Chain>
PTN1_HUMAN

> <UniProt (SwissProt) Primary ID of Target Chain>
P18031

> <UniProt (SwissProt) Secondary ID(s) of Target Chain>
Q5TGD8 Q9BQV9 Q9NQQ4

$$$$
Molecule
  SciTegic10242319433D

 68 72  0  0  0  0            999 V2000
    7.6257  -15.8523   -1.2069 O   0  0
    7.7196  -16.8248   -0.0001 P   0  0
    7.7307  -16.1149    1.1840 O   0  0
    9.0471  -18.5196   -1.2729 F   0  0
    9.1025  -17.7904   -0.1064 C   0  0
    9.0911  -18.7063    0.9204 F   0  0
   16.6815  -18.1471    0.4301 C   0  0
   15.3226  -17.3722    0.3061 C   0  0
   15.4121  -16.0458    0.3100 C   0  0
   14.2184  -15.2318    0.2017 C   0  0
   14.0149  -17.9965    0.1890 N   0  0
   12.9325  -17.2583    0.0955 C   0  0
   13.0544  -15.8152    0.1029 C   0  0
   11.8381  -15.0134    0.0170 C   0  0
   10.6483  -15.5656   -0.0527 C   0  0
   10.4752  -17.0692   -0.0563 C   0  0
   11.5884  -17.8597    0.0121 C   0  0
    9.5903  -14.7479   -0.1142 F   0  0
    6.4675  -17.7390   -0.0207 O   0  0
   18.8775  -18.5970   -1.2030 O   0  0
   18.3286  -19.9504   -0.7921 S   0  0
   17.9697  -20.7092   -2.0516 O   0  0
   16.7121  -19.5698    0.0003 N   0  0
   15.8723  -20.4949    0.8743 C   0  0
   19.7855  -20.8747   -0.1197 C   0  0
   20.9585  -20.2385   -0.0391 C   0  0
   22.2193  -20.9991    0.1992 C   0  0
   22.1959  -22.3334    0.2846 C   0  0
   20.9184  -23.0246    0.2030 C   0  0
   19.7920  -22.3394    0.0122 C   0  0
   15.7377  -21.9715    0.5259 C   0  0
   16.7800  -22.6492    0.0937 C   0  0
   16.7175  -24.0777   -0.1330 C   0  0
   15.5911  -24.7378    0.0902 C   0  0
   14.3994  -24.0084    0.5482 C   0  0
   14.4706  -22.6900    0.7640 C   0  0
   15.5787  -26.1890   -0.0844 C   0  0
   16.6786  -26.8789   -0.3927 C   0  0
   16.1496  -28.4378   -0.4364 S   0  0
   14.5872  -28.2156   -0.0748 N   0  0
   14.3871  -27.0159    0.0921 N   0  0
   23.3875  -23.1004    0.3929 O   0  0
   24.5690  -22.2795    0.3503 C   0  0
   25.7892  -23.1454    0.1147 C   0  0
   27.0497  -22.5597    0.0118 O   0  0
   25.6662  -24.3667   -0.0388 O   0  0
    8.4707  -15.2292   -1.2215 H   0  0
   17.4168  -17.6109   -0.1698 H   0  0
   16.9769  -18.1184    1.4789 H   0  0
   16.3882  -15.5683    0.3952 H   0  0
   14.2913  -14.1443    0.2027 H   0  0
   11.9191  -13.9264    0.0103 H   0  0
   11.4817  -18.9445    0.0050 H   0  0
    5.6019  -17.1497    0.0561 H   0  0
   16.2964  -20.4477    1.8774 H   0  0
   14.8632  -20.0831    0.8862 H   0  0
   20.9938  -19.1546   -0.1484 H   0  0
   23.1636  -20.4650    0.3042 H   0  0
   20.8826  -24.1098    0.2987 H   0  0
   18.8476  -22.8802   -0.0480 H   0  0
   17.7140  -22.1213   -0.0986 H   0  0
   17.5993  -24.6111   -0.4881 H   0  0
   13.4617  -24.5397    0.7113 H   0  0
   13.5934  -22.1468    1.1154 H   0  0
   17.6852  -26.5014   -0.5725 H   0  0
   24.4774  -21.5559   -0.4597 H   0  0
   24.6773  -21.7526    1.2983 H   0  0
   27.0582  -21.8854   -0.7930 H   0  0
 11  8  1  0
  5  4  1  0
 12 13  1  0
  6  5  1  0
 13 14  1  0
  7  8  1  0
 14 15  2  0
 15 16  1  0
  8  9  2  0
 16 17  2  0
 17 12  1  0
  2  1  1  0
 15 18  1  0
 16  5  1  0
  5  2  1  0
  9 10  1  0
  2 19  1  0
 10 13  2  0
  3  2  2  0
 12 11  2  0
 23  7  1  0
 21 20  2  0
 23 21  1  0
 21 25  1  0
 22 21  2  0
 23 24  1  0
 24 31  1  0
 25 26  2  0
 30 25  1  0
 26 27  1  0
 27 28  2  0
 28 29  1  0
 28 42  1  0
 29 30  2  0
 31 32  2  0
 36 31  1  0
 32 33  1  0
 33 34  2  0
 34 35  1  0
 34 37  1  0
 35 36  2  0
 37 38  2  0
 41 37  1  0
 38 39  1  0
 39 40  1  0
 40 41  2  0
 42 43  1  0
 43 44  1  0
 44 45  1  0
 44 46  2  0
  1 47  1  0
  7 48  1  0
  7 49  1  0
  9 50  1  0
 10 51  1  0
 14 52  1  0
 17 53  1  0
 19 54  1  0
 24 55  1  0
 24 56  1  0
 26 57  1  0
 27 58  1  0
 29 59  1  0
 30 60  1  0
 32 61  1  0
 33 62  1  0
 35 63  1  0
 36 64  1  0
 38 65  1  0
 43 66  1  0
 43 67  1  0
 45 68  1  0
M  END
> <Name>
Molecule

> <Clean Energy>
82.7917

> <From>
www.bindingDB.org

> <BindingDB Reactant_set_id>
50713200

> <Ligand InChI>
InChI=1S/C28H22F3N4O8PS2/c29-24-11-19-5-6-20(32-25(19)12-23(24)28(30,31)44(38,39)40)14-35(13-17-1-3-18(4-2-17)26-16-45-34-33-26)46(41,42)22-9-7-21(8-10-22)43-15-27(36)37/h1-12,16H,13-15H2,(H,36,37)(H2
,38,39,40)

> <Ligand InChI Key>
ARNPBLSVPATIMI-UHFFFAOYSA-N

> <BindingDB MonomerID>
50362196

> <BindingDB Ligand Name>
CHEMBL1938829

> <Target Name>
Tyrosine-protein phosphatase non-receptor type 1

> <Target Source Organism According to Curator or DataSource>
Homo sapiens

> <IC50 (nM)>
11

> <Curation/DataSource>
ChEMBL

> <Article DOI>
10.1016/j.bmcl.2011.11.122

> <BindingDB Entry DOI>
10.7270/Q2ZS2X05

> <PMID>
22189136

> <Authors>
Patel, D; Jain, M; Shah, SR; Bahekar, R; Jadav, P; Joharapurkar, A; Dhanesha, N; Shaikh, M; Sairam, KV; Kapadnis, P

> <Institution>
M.S. University of Baroda

> <Link to Ligand in BindingDB>
http://www.bindingdb.org/bind/chemsearch/marvin/MolStructure.jsp?monomerid=50362196

> <Link to Ligand-Target Pair in BindingDB>
http://www.bindingdb.org/jsp/dbsearch/PrimarySearch_ki.jsp?energyterm=kJ/mole&tag=pol&polymerid=2622&target=Tyrosine-protein+phosphatase+non-receptor+type+1&column=ki&startPg=0&Increment=50&submit=Sea
rch
http://www.bindingdb.org/jsp/dbsearch/PrimarySearch_ki.jsp?energyterm=kJ/mole&tag=r21&monomerid=50362196&enzyme=Tyrosine-protein+phosphatase+non-receptor+type+1&column=ki&startPg=0&Increment=50&submit
=Search

> <PubChem CID of Ligand>
56949985

> <PubChem SID of Ligand>
136966258

> <ChEMBL ID of Ligand>
CHEMBL1938829

> <ZINC ID of Ligand>
ZINC82164789

> <Number of Protein Chains in Target (bigger than 1 implies a multichain complex)>
1

> <BindingDB Target Chain Sequence>
MEMEKEFEQIDKSGSWAAIYQDIRHEASDFPCRVAKLPKNKNRNRYRDVSPFDHSRIKLHQEDNDYINASLIKMEEAQRSYILTQGPLPNTCGHFWEMVWEQKSRGVVMLNRVMEKGSLKCAQYWPQKEEKEMIFEDTNLKLTLISEDIKSYYTVRQLELENLTTQETREILHFHYTTWPDFGVPESPASFLNFLFKVRE
SGSLSPEHGPVVVHCSAGIGRSGTFCLADTCLLLMDKRKDPSSVDIKKVLLEMRKFRMGLIQTADQLRFSYLAVIEGAKFIMGDSSVQDQWKELSHEDLEPPPEHIPPPPRPPKRILEPHNGKCREFFPNHQWVKEETQEDKDCPIKEEKGSPLNAAPYGIESMSQDTEVRSRVVGGSLRGAQAASPAKGEPSLPEKDED
HALSYWKPFLVNMCVATVLTAGAYLCYRFLFNSNT

> <PDB ID(s) of Target Chain>
1BZJ,1G7G,1GFY,1JF7,1KAK,1KAV,1LQF,1NL9,1NNY,1NO6,1NZ7,1OEM,1OEO,1OES,1OET,1OEU,1OEV,1ONY,1ONZ,1PH0,1PXH,1PYN,1Q1M,1Q6J,1Q6M,1Q6N,1Q6P,1Q6S,1Q6T,1QXK,1SUG,1T48,1T49,1T4J,1WAX,1XBO,2AZR,2B07,2BGD,2BGE,
2CM2,2CM3,2CM7,2CM8,2CMA,2CMB,2CMC,2CNE,2CNF,2CNG,2CNH,2CNI,2F6T,2F6V,2F6W,2F6Y,2F6Z,2F70,2F71,2FJN,2H4G,2H4K,2HB1,2HNP,2HNQ,2QBP,2QBQ,2QBR,2QBS,2VEU,2VEV,2VEW,2VEX,2VEY,2ZMM,2ZN7,3A5J,3CWE,3D9C,3EAX,
3EB1,3EU0,3I7Z,3I80,3SME,4BJO,4I8N,4QBW,4Y14,5K9V,5K9W,5KA0,5KA1,5T19,6B90,6NTP,6W30,7KEY,7KLX,7LFO,7MN9,7MNA,8DU7,8G65,8G67,8G68,8G69,8G6A,8SKL

> <UniProt (SwissProt) Recommended Name of Target Chain>
Tyrosine-protein phosphatase non-receptor type 1

> <UniProt (SwissProt) Entry Name of Target Chain>
PTN1_HUMAN

> <UniProt (SwissProt) Primary ID of Target Chain>
P18031

> <UniProt (SwissProt) Secondary ID(s) of Target Chain>
Q5TGD8 Q9BQV9 Q9NQQ4

$$$$
Molecule
  SciTegic10242319433D

 64 70  0  0  0  0            999 V2000
    4.9772   -0.4949    0.2009 N   0  0
    5.9793   -1.5212    0.3846 C   0  0
    5.6475    0.7383    0.0289 C   0  0
    4.5036  -11.2687    0.0264 C   0  0
    3.6507  -10.2397   -0.0077 C   0  0
    4.2273   -8.7867   -0.0641 C   0  0
    3.6924  -12.7256    0.0686 S   0  0
    5.6086   -8.7090   -0.0548 C   0  0
    1.9614   -4.9647   -0.0665 C   0  0
    7.0779    0.4916    0.0526 C   0  0
    7.2840   -0.8796    0.2640 C   0  0
    5.9117  -11.1333    0.0271 C   0  0
    3.3380   -7.4710   -0.0962 C   0  0
    6.4462   -9.9277   -0.0152 C   0  0
    2.1713  -10.8064   -0.0189 C   0  0
    1.1522   -3.7461    0.1218 O   0  0
    2.1500  -12.1374    0.0248 C   0  0
    3.1530   -5.1083   -0.7043 C   0  0
    1.3735   -6.1933    0.5290 C   0  0
    3.5164   -0.6358    0.1176 C   0  0
    2.0237   -7.3611    0.5084 C   0  0
    3.8042   -6.3740   -0.6764 C   0  0
    0.5040   -1.4306   -0.0131 C   0  0
    1.6482   -2.4150   -0.2234 C   0  0  1  0  0  0
    2.9488   -1.9973    0.6059 C   0  0
    5.1068    1.8302   -0.1723 O   0  0
    5.7977   -2.7338    0.5425 O   0  0
    0.7048   -0.2270    0.1858 O   0  0
    7.0282  -12.6679    0.0755 Br  0  0
   -0.3629   -6.1102    1.3024 Br  0  0
    4.1558   -3.7837   -1.6652 Br  0  0
   -0.8028   -1.9012   -0.0303 O   0  0
    6.3915   -7.4337   -0.0545 C   0  0
    8.4940   -1.4216    0.3194 C   0  0
    8.0732    1.3540   -0.1044 C   0  0
    7.9049   -9.8151   -0.0077 C   0  0
    0.9043  -10.0933   -0.0773 C   0  0
    0.9309  -12.9194    0.0242 C   0  0
    7.7213   -7.4028   -0.0351 C   0  0
    9.4499    0.8093   -0.0464 C   0  0
    9.6500   -0.5040    0.1523 C   0  0
    8.5029   -8.6280   -0.0191 C   0  0
   -0.2401  -10.7852   -0.0776 C   0  0
   -0.2292  -12.2665   -0.0232 C   0  0
    3.0678    0.1519    0.7229 H   0  0
    3.2250   -0.5046   -0.9245 H   0  0
    1.5603   -8.2424    0.9517 H   0  0
    4.7703   -6.4474   -1.1757 H   0  0
    1.9064   -2.4135   -1.2824 H   0  0
    2.6859   -1.9145    1.6605 H   0  0
    3.7118   -2.7655    0.4804 H   0  0
   -1.0042   -2.3424   -0.9616 H   0  0
    5.8484   -6.4887   -0.0710 H   0  0
    8.6332   -2.4906    0.4800 H   0  0
    7.8869    2.4153   -0.2687 H   0  0
    8.5118  -10.7204    0.0074 H   0  0
    0.8881   -9.0043   -0.1205 H   0  0
    0.9618  -14.0083    0.0616 H   0  0
    8.2340   -6.4409   -0.0311 H   0  0
   10.3034    1.4767   -0.1655 H   0  0
   10.6655   -0.8982    0.1911 H   0  0
    9.5915   -8.5728   -0.0165 H   0  0
   -1.1912  -10.2542   -0.1182 H   0  0
   -1.1682  -12.8201   -0.0221 H   0  0
  2  1  1  0
  3  1  1  0
  4  5  2  0
  5  6  1  0
  6 13  1  0
  7  4  1  0
  8  6  2  0
  9 16  1  0
 10  3  1  0
 11  2  1  0
 12 14  2  0
 13 21  1  0
 14  8  1  0
 15  5  1  0
 24 16  1  0
 17 15  2  0
 18  9  2  0
 19  9  1  0
 20  1  1  0
 21 19  2  0
 22 18  1  0
 24 23  1  0
 24 25  1  0
 25 20  1  0
 26  3  2  0
 27  2  2  0
 28 23  2  0
 29 12  1  0
 30 19  1  0
 31 18  1  0
 32 23  1  0
 33  8  1  0
 34 11  2  0
 35 10  2  0
 36 14  1  0
 37 15  1  0
 38 17  1  0
 39 33  2  0
 40 35  1  0
 41 34  1  0
 42 39  1  0
 43 37  2  0
 44 43  1  0
 11 10  1  0
 40 41  2  0
 22 13  2  0
 12  4  1  0
  7 17  1  0
 42 36  2  0
 38 44  2  0
 20 45  1  0
 20 46  1  0
 21 47  1  0
 22 48  1  0
 24 49  1  0
 25 50  1  0
 25 51  1  0
 32 52  1  0
 33 53  1  0
 34 54  1  0
 35 55  1  0
 36 56  1  0
 37 57  1  0
 38 58  1  0
 39 59  1  0
 40 60  1  0
 41 61  1  0
 42 62  1  0
 43 63  1  0
 44 64  1  0
M  END
> <Name>
Molecule

> <Clean Energy>
102.596

> <From>
www.bindingDB.org

> <BindingDB Reactant_set_id>
50139776

> <Ligand InChI>
InChI=1S/C34H20Br3NO5S/c35-23-15-17(27-18-7-1-2-8-19(18)29(37)31-28(27)22-11-5-6-12-26(22)44-31)16-24(36)30(23)43-25(34(41)42)13-14-38-32(39)20-9-3-4-10-21(20)33(38)40/h1-12,15-16,25H,13-14H2,(H,41,42
)/t25-/m1/s1

> <Ligand InChI Key>
BBPLNAPIDXLLDO-RUZDIDTESA-N

> <BindingDB MonomerID>
50079859

> <BindingDB Ligand Name>
(R)-2-[2,6-Dibromo-4-(6-bromo-benzo[b]naphtho[2,3-d]thiophen-11-yl)-phenoxy]-4-(1,3-dioxo-1,3-dihydro-isoindol-2-yl)-butyric acid::CHEMBL326425

> <Target Name>
Tyrosine-protein phosphatase non-receptor type 1

> <Target Source Organism According to Curator or DataSource>
Homo sapiens

> <IC50 (nM)>
11

> <Curation/DataSource>
ChEMBL

> <Article DOI>
10.1021/jm990260v

> <BindingDB Entry DOI>
10.7270/Q2DF6QCQ

> <PMID>
10464006

> <Authors>
Wrobel, J; Sredy, J; Moxham, C; Dietrich, A; Li, Z; Sawicki, DR; Seestaller, L; Wu, L; Katz, A; Sullivan, D; Tio, C; Zhang, ZY

> <Institution>
Wyeth-Ayerst Research

> <Link to Ligand in BindingDB>
http://www.bindingdb.org/bind/chemsearch/marvin/MolStructure.jsp?monomerid=50079859

> <Link to Ligand-Target Pair in BindingDB>
http://www.bindingdb.org/jsp/dbsearch/PrimarySearch_ki.jsp?energyterm=kJ/mole&tag=pol&polymerid=2622&target=Tyrosine-protein+phosphatase+non-receptor+type+1&column=ki&startPg=0&Increment=50&submit=Sea
rch
http://www.bindingdb.org/jsp/dbsearch/PrimarySearch_ki.jsp?energyterm=kJ/mole&tag=r21&monomerid=50079859&enzyme=Tyrosine-protein+phosphatase+non-receptor+type+1&column=ki&startPg=0&Increment=50&submit
=Search

> <PubChem CID of Ligand>
10629121

> <PubChem SID of Ligand>
103971992

> <ChEMBL ID of Ligand>
CHEMBL326425

> <ZINC ID of Ligand>
ZINC95610979

> <Number of Protein Chains in Target (bigger than 1 implies a multichain complex)>
1

> <BindingDB Target Chain Sequence>
MEMEKEFEQIDKSGSWAAIYQDIRHEASDFPCRVAKLPKNKNRNRYRDVSPFDHSRIKLHQEDNDYINASLIKMEEAQRSYILTQGPLPNTCGHFWEMVWEQKSRGVVMLNRVMEKGSLKCAQYWPQKEEKEMIFEDTNLKLTLISEDIKSYYTVRQLELENLTTQETREILHFHYTTWPDFGVPESPASFLNFLFKVRE
SGSLSPEHGPVVVHCSAGIGRSGTFCLADTCLLLMDKRKDPSSVDIKKVLLEMRKFRMGLIQTADQLRFSYLAVIEGAKFIMGDSSVQDQWKELSHEDLEPPPEHIPPPPRPPKRILEPHNGKCREFFPNHQWVKEETQEDKDCPIKEEKGSPLNAAPYGIESMSQDTEVRSRVVGGSLRGAQAASPAKGEPSLPEKDED
HALSYWKPFLVNMCVATVLTAGAYLCYRFLFNSNT

> <PDB ID(s) of Target Chain>
1BZJ,1G7G,1GFY,1JF7,1KAK,1KAV,1LQF,1NL9,1NNY,1NO6,1NZ7,1OEM,1OEO,1OES,1OET,1OEU,1OEV,1ONY,1ONZ,1PH0,1PXH,1PYN,1Q1M,1Q6J,1Q6M,1Q6N,1Q6P,1Q6S,1Q6T,1QXK,1SUG,1T48,1T49,1T4J,1WAX,1XBO,2AZR,2B07,2BGD,2BGE,
2CM2,2CM3,2CM7,2CM8,2CMA,2CMB,2CMC,2CNE,2CNF,2CNG,2CNH,2CNI,2F6T,2F6V,2F6W,2F6Y,2F6Z,2F70,2F71,2FJN,2H4G,2H4K,2HB1,2HNP,2HNQ,2QBP,2QBQ,2QBR,2QBS,2VEU,2VEV,2VEW,2VEX,2VEY,2ZMM,2ZN7,3A5J,3CWE,3D9C,3EAX,
3EB1,3EU0,3I7Z,3I80,3SME,4BJO,4I8N,4QBW,4Y14,5K9V,5K9W,5KA0,5KA1,5T19,6B90,6NTP,6W30,7KEY,7KLX,7LFO,7MN9,7MNA,8DU7,8G65,8G67,8G68,8G69,8G6A,8SKL

> <UniProt (SwissProt) Recommended Name of Target Chain>
Tyrosine-protein phosphatase non-receptor type 1

> <UniProt (SwissProt) Entry Name of Target Chain>
PTN1_HUMAN

> <UniProt (SwissProt) Primary ID of Target Chain>
P18031

> <UniProt (SwissProt) Secondary ID(s) of Target Chain>
Q5TGD8 Q9BQV9 Q9NQQ4

$$$$
Molecule
  SciTegic10242319433D

 75 79  0  0  0  0            999 V2000
   -1.4196   -1.0878   -0.0737 N   0  0
   -1.0034   -2.4047   -0.0060 N   0  0
   -0.4303    0.1387    0.4979 C   0  0
    6.7316    3.6745    0.3483 P   0  0
    3.0940   -6.3968   -0.1133 P   0  0
    4.0891   -5.0793    0.1666 C   0  0
    6.2001    2.1514   -0.0319 C   0  0
   -1.8781   -3.2391   -0.2052 N   0  0
   -2.8667   -1.2574   -0.4301 C   0  0
   -3.0678   -2.6179   -0.4514 C   0  0
   -5.2030    3.5875    0.1501 C   0  0
   -1.6435    1.2075    0.4601 C   0  0
    3.2461   -3.8300    0.0387 C   0  0
    4.6969    2.0576    0.0479 C   0  0
    0.5969   -0.3718   -0.6362 C   0  0
    0.3276    1.4992   -0.0583 C   0  0
    6.3630    3.9812    1.6417 O   0  0
    2.5335   -6.2872   -1.3702 O   0  0
   -3.9505    2.8537    0.3283 C   0  0
    6.7712    1.2452    0.8349 F   0  0
    4.5916   -5.2150    1.4430 F   0  0
    6.5934    1.9159   -1.3343 F   0  0
    5.0906   -5.0769   -0.7830 F   0  0
   -5.3323    4.3420   -0.8249 O   0  0
    8.2780    3.7035    0.2292 O   0  0
    3.9217   -7.7046   -0.0359 O   0  0
    1.9633   -6.4516    0.9477 O   0  0
    6.1273    4.7150   -0.6284 O   0  0
   -1.8682    2.0351   -0.5899 C   0  0
   -2.6254    1.2403    1.5952 C   0  0
   -3.7214    2.0077    1.5192 C   0  0
   -3.0552    2.8868   -0.6472 C   0  0
    2.3958   -3.4702    0.9999 C   0  0
    4.0643    1.3007    1.1370 C   0  0
    3.3327   -3.0345   -1.1830 C   0  0
    3.9463    2.6069   -0.9034 C   0  0
    1.8963    1.7146    0.0617 C   0  0
    1.5638   -1.5952   -0.3314 C   0  0
   -6.2916    3.3284    0.9746 O   0  0
    2.7407    1.1367    1.1606 C   0  0
    2.5362   -1.9819   -1.3603 C   0  0
    1.5259   -2.2929    0.8132 C   0  0
    2.4953    2.4366   -0.8915 C   0  0
   -3.9003   -0.4401   -0.6850 C   0  0
   -4.2376   -3.1984   -0.6735 C   0  0
   -7.4383    4.0403    0.4914 C   0  0
   -5.2297   -1.0126   -0.9468 C   0  0
   -5.3967   -2.3365   -0.9278 C   0  0
   -0.0028   -0.6515   -1.5024 H   0  0
    1.2319    0.4764   -0.8919 H   0  0
    0.0947    1.5615   -1.1213 H   0  0
   -0.1332    2.3370    0.4649 H   0  0
    8.6938    3.0041    0.8929 H   0  0
    4.6806   -7.6825   -0.7613 H   0  0
    2.3852   -6.5381    1.9054 H   0  0
    6.4203    4.4854   -1.6102 H   0  0
   -1.1490    2.0662   -1.4083 H   0  0
   -2.4461    0.6371    2.4852 H   0  0
   -4.4439    2.0082    2.3353 H   0  0
   -3.2042    3.5524   -1.4974 H   0  0
    2.3430   -4.0456    1.9241 H   0  0
    4.6788    0.8717    1.9284 H   0  0
    4.0537   -3.3040   -1.9547 H   0  0
    4.4169    3.1877   -1.6967 H   0  0
    2.2732    0.5844    1.9758 H   0  0
    2.6074   -1.4011   -2.2799 H   0  0
    0.8480   -1.9885    1.6107 H   0  0
    1.8927    2.9043   -1.6701 H   0  0
   -3.7556    0.6402   -0.6979 H   0  0
   -4.3358   -4.2839   -0.6673 H   0  0
   -8.2918    3.8371    1.1381 H   0  0
   -7.6668    3.7157   -0.5237 H   0  0
   -7.2292    5.1101    0.4920 H   0  0
   -6.0756   -0.3576   -1.1556 H   0  0
   -6.3814   -2.7714   -1.0990 H   0  0
  2  1  1  0
  3  1  1  0
  4  7  1  0
  5  6  1  0
  6 13  1  0
  7 14  1  0
  8  2  2  0
  9  1  1  0
 10  9  1  0
 11 19  1  0
 12  3  1  0
 13 33  2  0
 14 36  2  0
 15  3  1  0
 16  3  1  0
 17  4  2  0
 18  5  2  0
 19 31  1  0
 20  7  1  0
 21  6  1  0
 22  7  1  0
 23  6  1  0
 24 11  2  0
 25  4  1  0
 26  5  1  0
 27  5  1  0
 28  4  1  0
 29 12  2  0
 30 12  1  0
 31 30  2  0
 32 29  1  0
 33 42  1  0
 34 40  2  0
 35 41  2  0
 36 43  1  0
 37 16  1  0
 38 15  1  0
 39 11  1  0
 40 37  1  0
 41 38  1  0
 42 38  2  0
 43 37  2  0
 44  9  2  0
 45 10  2  0
 46 39  1  0
 47 44  1  0
 48 47  2  0
  8 10  1  0
 45 48  1  0
 19 32  2  0
 14 34  1  0
 13 35  1  0
 15 49  1  0
 15 50  1  0
 16 51  1  0
 16 52  1  0
 25 53  1  0
 26 54  1  0
 27 55  1  0
 28 56  1  0
 29 57  1  0
 30 58  1  0
 31 59  1  0
 32 60  1  0
 33 61  1  0
 34 62  1  0
 35 63  1  0
 36 64  1  0
 40 65  1  0
 41 66  1  0
 42 67  1  0
 43 68  1  0
 44 69  1  0
 45 70  1  0
 46 71  1  0
 46 72  1  0
 46 73  1  0
 47 74  1  0
 48 75  1  0
M  END
> <Name>
Molecule

> <Clean Energy>
211.299

> <From>
www.bindingDB.org

> <BindingDB Reactant_set_id>
50261824

> <Ligand InChI>
InChI=1S/C31H27F4N3O8P2/c1-46-28(39)22-10-16-23(17-11-22)29(38-27-5-3-2-4-26(27)36-37-38,18-20-6-12-24(13-7-20)30(32,33)47(40,41)42)19-21-8-14-25(15-9-21)31(34,35)48(43,44)45/h2-17H,18-19H2,1H3,(H2,40
,41,42)(H2,43,44,45)

> <Ligand InChI Key>
CLRSCKINFSDJJY-UHFFFAOYSA-N

> <BindingDB MonomerID>
50142328

> <BindingDB Ligand Name>
4-{1-Benzotriazol-1-yl-1-[4-(difluoro-phosphono-methyl)-benzyl]-2-[4-(difluoro-phosphono-methyl)-phenyl]-ethyl}-benzoic acid methyl ester::CHEMBL268903

> <Target Name>
Tyrosine-protein phosphatase non-receptor type 1

> <Target Source Organism According to Curator or DataSource>
Homo sapiens

> <IC50 (nM)>
11

> <Curation/DataSource>
ChEMBL

> <Article DOI>
10.1016/j.bmcl.2003.11.076

> <BindingDB Entry DOI>
10.7270/Q24M9404

> <PMID>
15013020

> <Authors>
Lau, CK; Bayly, CI; Gauthier, JY; Li, CS; Therien, M; Asante-Appiah, E; Cromlish, W; Boie, Y; Forghani, F; Desmarais, S; Wang, Q; Skorey, K; Waddleton, D; Payette, P; Ramachandran, C; Kennedy, BP; Sca
pin, G

> <Institution>
Merck Frosst Centre for Therapeutic Research

> <Link to Ligand in BindingDB>
http://www.bindingdb.org/bind/chemsearch/marvin/MolStructure.jsp?monomerid=50142328

> <Link to Ligand-Target Pair in BindingDB>
http://www.bindingdb.org/jsp/dbsearch/PrimarySearch_ki.jsp?energyterm=kJ/mole&tag=pol&polymerid=2622&target=Tyrosine-protein+phosphatase+non-receptor+type+1&column=ki&startPg=0&Increment=50&submit=Sea
rch
http://www.bindingdb.org/jsp/dbsearch/PrimarySearch_ki.jsp?energyterm=kJ/mole&tag=r21&monomerid=50142328&enzyme=Tyrosine-protein+phosphatase+non-receptor+type+1&column=ki&startPg=0&Increment=50&submit
=Search

> <PubChem CID of Ligand>
10169038

> <PubChem SID of Ligand>
104031719

> <ChEMBL ID of Ligand>
CHEMBL268903

> <ZINC ID of Ligand>
ZINC25993383

> <Number of Protein Chains in Target (bigger than 1 implies a multichain complex)>
1

> <BindingDB Target Chain Sequence>
MEMEKEFEQIDKSGSWAAIYQDIRHEASDFPCRVAKLPKNKNRNRYRDVSPFDHSRIKLHQEDNDYINASLIKMEEAQRSYILTQGPLPNTCGHFWEMVWEQKSRGVVMLNRVMEKGSLKCAQYWPQKEEKEMIFEDTNLKLTLISEDIKSYYTVRQLELENLTTQETREILHFHYTTWPDFGVPESPASFLNFLFKVRE
SGSLSPEHGPVVVHCSAGIGRSGTFCLADTCLLLMDKRKDPSSVDIKKVLLEMRKFRMGLIQTADQLRFSYLAVIEGAKFIMGDSSVQDQWKELSHEDLEPPPEHIPPPPRPPKRILEPHNGKCREFFPNHQWVKEETQEDKDCPIKEEKGSPLNAAPYGIESMSQDTEVRSRVVGGSLRGAQAASPAKGEPSLPEKDED
HALSYWKPFLVNMCVATVLTAGAYLCYRFLFNSNT

> <PDB ID(s) of Target Chain>
1BZJ,1G7G,1GFY,1JF7,1KAK,1KAV,1LQF,1NL9,1NNY,1NO6,1NZ7,1OEM,1OEO,1OES,1OET,1OEU,1OEV,1ONY,1ONZ,1PH0,1PXH,1PYN,1Q1M,1Q6J,1Q6M,1Q6N,1Q6P,1Q6S,1Q6T,1QXK,1SUG,1T48,1T49,1T4J,1WAX,1XBO,2AZR,2B07,2BGD,2BGE,
2CM2,2CM3,2CM7,2CM8,2CMA,2CMB,2CMC,2CNE,2CNF,2CNG,2CNH,2CNI,2F6T,2F6V,2F6W,2F6Y,2F6Z,2F70,2F71,2FJN,2H4G,2H4K,2HB1,2HNP,2HNQ,2QBP,2QBQ,2QBR,2QBS,2VEU,2VEV,2VEW,2VEX,2VEY,2ZMM,2ZN7,3A5J,3CWE,3D9C,3EAX,
3EB1,3EU0,3I7Z,3I80,3SME,4BJO,4I8N,4QBW,4Y14,5K9V,5K9W,5KA0,5KA1,5T19,6B90,6NTP,6W30,7KEY,7KLX,7LFO,7MN9,7MNA,8DU7,8G65,8G67,8G68,8G69,8G6A,8SKL

> <UniProt (SwissProt) Recommended Name of Target Chain>
Tyrosine-protein phosphatase non-receptor type 1

> <UniProt (SwissProt) Entry Name of Target Chain>
PTN1_HUMAN

> <UniProt (SwissProt) Primary ID of Target Chain>
P18031

> <UniProt (SwissProt) Secondary ID(s) of Target Chain>
Q5TGD8 Q9BQV9 Q9NQQ4

$$$$
3
  SciTegic10242319433D

 69 73  0  0  0  0            999 V2000
    3.4153    1.8160   -0.0857 C   0  0
    4.8806    1.9902   -0.1860 C   0  0
    5.4278    3.2034   -0.0405 C   0  0
    4.5518    4.3651    0.2159 C   0  0
    2.6678    2.9104    0.1623 C   0  0
    3.2577    4.1428    0.2990 C   0  0
    2.2375    5.0711    0.5246 N   0  0
    1.1510    4.4993    0.5357 N   0  0
    1.2707    3.1291    0.3282 N   0  0
    0.3279    0.8970   -0.5066 C   0  0
   -0.0948    0.4860   -1.7042 C   0  0
    0.1640   -0.9284   -2.1093 C   0  0
    0.7967   -1.7743   -1.2854 C   0  0
    1.2622   -1.3160    0.0076 C   0  0
    1.0390   -0.0660    0.3770 C   0  0
   -0.7330    1.9232    1.5360 C   0  0
   -2.0934    0.9718    1.4592 C   0  0
   -3.3563    1.3718    2.1222 C   0  0
   -4.4563    0.6019    2.0137 C   0  0
   -4.4371   -0.6743    1.2429 C   0  0
   -3.3022   -1.0449    0.6738 C   0  0
   -2.1206   -0.1944    0.7893 C   0  0
   -5.6951   -1.5679    1.1559 C   0  0
   -6.8159   -0.7885    1.3347 F   0  0
   -5.6252   -2.4643    2.1988 F   0  0
   -5.8311   -2.4905   -0.2584 P   0  0
   -4.7426   -3.3260   -0.4146 O   0  0
   -5.9562   -1.5688   -1.4985 O   0  0
   -7.1118   -3.3685   -0.1563 O   0  0
    0.0122    2.2862    0.1026 C   0  0
   -0.8664    3.4310   -0.6377 C   0  0
   -2.3863    3.3900   -0.7560 C   0  0
   -3.0650    4.4531   -0.2898 C   0  0
   -4.5484    4.4952   -0.3092 C   0  0
   -4.4431    2.2933   -1.3069 C   0  0
   -3.1131    2.2711   -1.2998 C   0  0
   -5.2036    3.4395   -0.7878 C   0  0
   -7.6891    4.4695   -0.1132 P   0  0
   -7.4056    5.7515   -0.5376 O   0  0
   -9.1605    4.1300   -0.4915 O   0  0
   -7.5387    4.3804    1.4274 O   0  0
   -6.7182    3.3441   -0.8962 C   0  0
   -6.9836    3.4250   -2.2367 F   0  0
   -7.0689    2.0727   -0.5003 F   0  0
    1.0029   -3.0523   -1.6419 F   0  0
    1.9183   -2.1467    0.8335 F   0  0
    2.9550    0.8355   -0.2082 H   0  0
    5.5177    1.1271   -0.3792 H   0  0
    6.5079    3.3326   -0.1105 H   0  0
    4.9620    5.3683    0.3319 H   0  0
   -0.6183    1.1689   -2.3733 H   0  0
   -0.1662   -1.2767   -3.0880 H   0  0
    1.3853    0.2678    1.3551 H   0  0
   -0.0059    1.4072    2.1630 H   0  0
   -1.0164    2.8646    2.0068 H   0  0
   -3.3957    2.2944    2.7012 H   0  0
   -5.3794    0.9183    2.4995 H   0  0
   -3.2490   -1.9824    0.1202 H   0  0
   -1.2034   -0.5253    0.3022 H   0  0
   -6.8101   -0.9654   -1.4020 H   0  0
   -7.0369   -4.0019    0.6778 H   0  0
   -0.6344    4.3626   -0.1215 H   0  0
   -0.4908    3.4781   -1.6598 H   0  0
   -2.5132    5.3032    0.1114 H   0  0
   -5.0877    5.3679    0.0589 H   0  0
   -4.9847    1.4372   -1.7091 H   0  0
   -2.5766    1.4121   -1.7028 H   0  0
   -9.2787    4.1950   -1.5328 H   0  0
   -7.8166    3.4211    1.7517 H   0  0
  5  1  2  0
  1  2  1  0
  2  3  2  0
  3  4  1  0
  4  6  2  0
  9  5  1  0
  5  6  1  0
  7  6  1  0
  7  8  2  0
  8  9  1  0
  9 30  1  0
 30 16  1  0
 30 10  1  0
 10 11  2  0
 10 15  1  0
 11 12  1  0
 12 13  2  0
 13 14  1  0
 14 15  2  0
 16 17  1  0
 22 17  2  0
 18 17  1  0
 18 19  2  0
 19 20  1  0
 20 21  2  0
 21 22  1  0
 20 23  1  0
 23 26  1  0
 23 25  1  0
 23 24  1  0
 26 27  2  0
 26 28  1  0
 26 29  1  0
 30 31  1  0
 31 32  1  0
 32 33  2  0
 32 36  1  0
 33 34  1  0
 34 37  2  0
 37 35  1  0
 35 36  2  0
 37 42  1  0
 42 38  1  0
 38 40  1  0
 38 39  2  0
 38 41  1  0
 42 43  1  0
 42 44  1  0
 13 45  1  0
 14 46  1  0
  1 47  1  0
  2 48  1  0
  3 49  1  0
  4 50  1  0
 11 51  1  0
 12 52  1  0
 15 53  1  0
 16 54  1  0
 16 55  1  0
 18 56  1  0
 19 57  1  0
 21 58  1  0
 22 59  1  0
 28 60  1  0
 29 61  1  0
 31 62  1  0
 31 63  1  0
 33 64  1  0
 34 65  1  0
 35 66  1  0
 36 67  1  0
 40 68  1  0
 41 69  1  0
M  END
> <Name>
3

> <Clean Energy>
111.359

> <From>
www.bindingDB.org

> <BindingDB Reactant_set_id>
50026911

> <Ligand InChI>
InChI=1S/C29H23F6N3O6P2/c30-23-14-13-22(15-24(23)31)27(38-26-4-2-1-3-25(26)36-37-38,16-18-5-9-20(10-6-18)28(32,33)45(39,40)41)17-19-7-11-21(12-8-19)29(34,35)46(42,43)44/h1-15H,16-17H2,(H2,39,40,41)(H2
,42,43,44)

> <Ligand InChI Key>
BTAGTGWPDROBMG-UHFFFAOYSA-N

> <BindingDB MonomerID>
13596

> <BindingDB Ligand Name>
({4-[2-(1H-1,2,3-benzotriazol-1-yl)-3-{4-[difluoro(phosphono)methyl]phenyl}-2-(3,4-difluorophenyl)propyl]phenyl}difluoromethyl)phosphonic acid::Aryldifluoromethyl-Phosphonic Acid Inhibitor 3::CHEMBL26
7048

> <Target Name>
Tyrosine-protein phosphatase non-receptor type 1

> <Target Source Organism According to Curator or DataSource>
Homo sapiens

> <IC50 (nM)>
12

> <Curation/DataSource>
ChEMBL

> <Article DOI>
10.1016/j.bmcl.2003.11.076

> <BindingDB Entry DOI>
10.7270/Q24M9404

> <PMID>
15013020

> <Authors>
Lau, CK; Bayly, CI; Gauthier, JY; Li, CS; Therien, M; Asante-Appiah, E; Cromlish, W; Boie, Y; Forghani, F; Desmarais, S; Wang, Q; Skorey, K; Waddleton, D; Payette, P; Ramachandran, C; Kennedy, BP; Sca
pin, G

> <Institution>
Merck Frosst Centre for Therapeutic Research

> <Link to Ligand in BindingDB>
http://www.bindingdb.org/bind/chemsearch/marvin/MolStructure.jsp?monomerid=13596

> <Link to Ligand-Target Pair in BindingDB>
http://www.bindingdb.org/jsp/dbsearch/PrimarySearch_ki.jsp?energyterm=kJ/mole&tag=pol&polymerid=2622&target=Tyrosine-protein+phosphatase+non-receptor+type+1&column=ki&startPg=0&Increment=50&submit=Sea
rch
http://www.bindingdb.org/jsp/dbsearch/PrimarySearch_ki.jsp?energyterm=kJ/mole&tag=r21&monomerid=13596&enzyme=Tyrosine-protein+phosphatase+non-receptor+type+1&column=ki&startPg=0&Increment=50&submit=Se
arch

> <Ligand HET ID in PDB>
P27

> <PDB ID(s) for Ligand-Target Complex>
1Q6M

> <PubChem CID of Ligand>
448024

> <PubChem SID of Ligand>
46513991

> <ChEMBL ID of Ligand>
CHEMBL267048

> <DrugBank ID of Ligand>
DB02651

> <ZINC ID of Ligand>
ZINC24787833

> <Number of Protein Chains in Target (bigger than 1 implies a multichain complex)>
1

> <BindingDB Target Chain Sequence>
MEMEKEFEQIDKSGSWAAIYQDIRHEASDFPCRVAKLPKNKNRNRYRDVSPFDHSRIKLHQEDNDYINASLIKMEEAQRSYILTQGPLPNTCGHFWEMVWEQKSRGVVMLNRVMEKGSLKCAQYWPQKEEKEMIFEDTNLKLTLISEDIKSYYTVRQLELENLTTQETREILHFHYTTWPDFGVPESPASFLNFLFKVRE
SGSLSPEHGPVVVHCSAGIGRSGTFCLADTCLLLMDKRKDPSSVDIKKVLLEMRKFRMGLIQTADQLRFSYLAVIEGAKFIMGDSSVQDQWKELSHEDLEPPPEHIPPPPRPPKRILEPHNGKCREFFPNHQWVKEETQEDKDCPIKEEKGSPLNAAPYGIESMSQDTEVRSRVVGGSLRGAQAASPAKGEPSLPEKDED
HALSYWKPFLVNMCVATVLTAGAYLCYRFLFNSNT

> <PDB ID(s) of Target Chain>
1BZJ,1G7G,1GFY,1JF7,1KAK,1KAV,1LQF,1NL9,1NNY,1NO6,1NZ7,1OEM,1OEO,1OES,1OET,1OEU,1OEV,1ONY,1ONZ,1PH0,1PXH,1PYN,1Q1M,1Q6J,1Q6M,1Q6N,1Q6P,1Q6S,1Q6T,1QXK,1SUG,1T48,1T49,1T4J,1WAX,1XBO,2AZR,2B07,2BGD,2BGE,
2CM2,2CM3,2CM7,2CM8,2CMA,2CMB,2CMC,2CNE,2CNF,2CNG,2CNH,2CNI,2F6T,2F6V,2F6W,2F6Y,2F6Z,2F70,2F71,2FJN,2H4G,2H4K,2HB1,2HNP,2HNQ,2QBP,2QBQ,2QBR,2QBS,2VEU,2VEV,2VEW,2VEX,2VEY,2ZMM,2ZN7,3A5J,3CWE,3D9C,3EAX,
3EB1,3EU0,3I7Z,3I80,3SME,4BJO,4I8N,4QBW,4Y14,5K9V,5K9W,5KA0,5KA1,5T19,6B90,6NTP,6W30,7KEY,7KLX,7LFO,7MN9,7MNA,8DU7,8G65,8G67,8G68,8G69,8G6A,8SKL

> <UniProt (SwissProt) Recommended Name of Target Chain>
Tyrosine-protein phosphatase non-receptor type 1

> <UniProt (SwissProt) Entry Name of Target Chain>
PTN1_HUMAN

> <UniProt (SwissProt) Primary ID of Target Chain>
P18031

> <UniProt (SwissProt) Secondary ID(s) of Target Chain>
Q5TGD8 Q9BQV9 Q9NQQ4

$$$$
9
  SciTegic10242319433D

 84 90  0  0  0  0            999 V2000
   -6.0405    3.3053   -0.6525 C   0  0
   -5.7016    2.8816    0.5658 C   0  0
   -4.2906    2.7095    0.9347 C   0  0
   -3.3235    2.9799    0.0497 C   0  0
   -3.7251    3.4521   -1.3422 C   0  0
   -5.0120    3.6033   -1.6504 C   0  0
   -0.2465    2.7463   -0.1628 C   0  0
    0.8514    1.5417   -0.1861 C   0  0
    0.5746    0.2587   -0.3962 C   0  0
    1.5505   -0.7813   -0.3883 C   0  0
    2.8206   -0.4971   -0.1857 C   0  0
    3.2199    0.9104    0.0205 C   0  0
    2.2863    1.8768    0.0224 C   0  0
    3.7666   -1.6155   -0.1478 C   0  0
    3.2378   -2.9891   -0.1926 C   0  0
    5.9819   -2.5743    0.0130 C   0  0
    5.0764   -1.4162   -0.0366 C   0  0
   -1.8244    2.7725    0.4697 C   0  0  1  0  0  0
   -2.1547    1.7201   -0.6623 C   0  0
   -2.4394    0.2057   -0.2903 C   0  0
   -2.9116   -0.6584   -1.3669 C   0  0
   -2.9930   -1.9740   -1.2070 C   0  0
   -2.6075   -2.5941    0.0486 C   0  0
   -2.2204   -1.8253    1.0733 C   0  0
   -2.1381   -0.3398    0.9017 C   0  0
   -2.5395   -4.1134    0.1185 C   0  0
   -1.7757   -4.5167    1.1937 F   0  0
   -1.9977   -4.5641   -1.0709 F   0  0
   -4.0379   -4.8120    0.2197 P   0  0
   -3.8854   -6.1852    0.2069 O   0  0
   -4.9066   -4.3883   -0.9908 O   0  0
   -4.7246   -4.3833    1.5350 O   0  0
   -1.5593    4.3728    0.2225 N   0  0
   -0.3448    4.8658   -0.2909 N   0  0
   -0.3276    6.0922   -0.4163 N   0  0
   -1.5325    6.6275    0.0040 C   0  0
   -2.3453    5.6060    0.4568 C   0  0
   -4.0220    7.2783    0.9697 C   0  0
   -3.5621    5.8684    0.9510 C   0  0
   -1.8893    7.9078   -0.0044 C   0  0
   -3.2262    8.2488    0.5043 C   0  0
    7.5743   -2.3346    0.1190 P   0  0
    7.8239   -1.0708    0.6104 O   0  0
    8.1694   -2.4511   -1.3076 O   0  0
    8.2290   -3.4156    1.0153 O   0  0
    4.0684   -4.0261   -0.1294 C   0  0
    5.4910   -3.8139   -0.0157 C   0  0
    3.5697   -5.3865   -0.1554 C   0  0
    4.4435   -6.3892   -0.0894 C   0  0
    5.8943   -6.1171    0.0110 C   0  0
    6.3461   -4.9230    0.0340 N   0  0
    6.8566   -7.2673    0.0787 C   0  0
   -7.0928    3.4308   -0.9073 H   0  0
   -6.4803    2.6607    1.2957 H   0  0
   -4.0297    2.3600    1.9336 H   0  0
   -2.9582    3.6665   -2.0866 H   0  0
   -5.2987    3.9482   -2.6439 H   0  0
   -0.3762    3.0086   -1.2128 H   0  0
    0.2615    3.5596    0.3554 H   0  0
   -0.4629   -0.0158   -0.5865 H   0  0
    1.2444   -1.8148   -0.5504 H   0  0
    4.2692    1.1642    0.1707 H   0  0
    2.5822    2.9143    0.1778 H   0  0
    2.1641   -3.1563   -0.2777 H   0  0
    5.4757   -0.4035    0.0174 H   0  0
   -3.0404    2.0865   -1.1813 H   0  0
   -1.3061    1.7199   -1.3464 H   0  0
   -3.2027   -0.2160   -2.3196 H   0  0
   -3.3531   -2.5954   -2.0269 H   0  0
   -1.9654   -2.2794    2.0309 H   0  0
   -1.8367    0.2939    1.7357 H   0  0
   -5.0137   -3.3437   -0.9968 H   0  0
   -4.1412   -4.6918    2.3517 H   0  0
   -5.0085    7.5243    1.3625 H   0  0
   -4.1973    5.0674    1.3293 H   0  0
   -1.2140    8.6787   -0.3756 H   0  0
   -3.5667    9.2843    0.5024 H   0  0
    7.9709   -3.4074   -1.6932 H   0  0
    7.8134   -3.3710    1.9786 H   0  0
    2.5004   -5.5851   -0.2276 H   0  0
    4.0869   -7.4190   -0.1095 H   0  0
    6.3040   -8.2063    0.0478 H   0  0
    7.4256   -7.2115    1.0067 H   0  0
    7.5399   -7.2205   -0.7693 H   0  0
  1  2  2  0
  1  6  1  0
  2  3  1  0
  3  4  2  0
  4  5  1  0
  5  6  2  0
  4 18  1  0
 18  7  1  0
  7  8  1  0
  8  9  2  0
  8 13  1  0
  9 10  1  0
 10 11  2  0
 11 12  1  0
 12 13  2  0
 11 14  1  0
 14 15  1  0
 14 17  2  0
 15 46  2  0
 47 16  2  0
 16 17  1  0
 18 33  1  0
 18 19  1  0
 19 20  1  0
 25 20  2  0
 21 20  1  0
 21 22  2  0
 22 23  1  0
 23 24  2  0
 24 25  1  0
 23 26  1  0
 26 27  1  0
 26 29  1  0
 26 28  1  0
 29 31  1  0
 29 30  2  0
 29 32  1  0
 37 33  1  0
 33 34  1  0
 36 35  1  0
 34 35  2  0
 36 40  2  0
 36 37  1  0
 39 37  2  0
 38 39  1  0
 38 41  2  0
 40 41  1  0
 16 42  1  0
 42 45  1  0
 42 43  2  0
 42 44  1  0
 46 48  1  0
 46 47  1  0
 51 47  1  0
 51 50  2  0
 48 49  2  0
 49 50  1  0
 50 52  1  0
  1 53  1  0
  2 54  1  0
  3 55  1  0
  5 56  1  0
  6 57  1  0
  7 58  1  0
  7 59  1  0
  9 60  1  0
 10 61  1  0
 12 62  1  0
 13 63  1  0
 15 64  1  0
 17 65  1  0
 19 66  1  0
 19 67  1  0
 21 68  1  0
 22 69  1  0
 24 70  1  0
 25 71  1  0
 31 72  1  0
 32 73  1  0
 38 74  1  0
 39 75  1  0
 40 76  1  0
 41 77  1  0
 44 78  1  0
 45 79  1  0
 48 80  1  0
 49 81  1  0
 52 82  1  0
 52 83  1  0
 52 84  1  0
M  END
> <Name>
9

> <Clean Energy>
206.127

> <From>
www.bindingDB.org

> <BindingDB Reactant_set_id>
50026896

> <Ligand InChI>
InChI=1S/C38H32F2N4O6P2/c1-25-11-16-29-21-30(22-35(36(29)41-25)51(45,46)47)28-17-12-26(13-18-28)23-37(31-7-3-2-4-8-31,44-34-10-6-5-9-33(34)42-43-44)24-27-14-19-32(20-15-27)38(39,40)52(48,49)50/h2-22H,
23-24H2,1H3,(H2,45,46,47)(H2,48,49,50)

> <Ligand InChI Key>
SZXQFEXBARNEFM-UHFFFAOYSA-N

> <BindingDB MonomerID>
13602

> <BindingDB Ligand Name>
6-{4-[2-(1H-1,2,3-benzotriazol-1-yl)-3-{4-[difluoro(phosphono)methyl]phenyl}-2-phenylpropyl]phenyl}-2-methylquinoline-8-phosphonic acid::Aryldifluoromethyl-Phosphonic Acid Inhibitor 9::CHEMBL268526

> <Target Name>
Tyrosine-protein phosphatase non-receptor type 1

> <Target Source Organism According to Curator or DataSource>
Homo sapiens

> <IC50 (nM)>
12

> <Curation/DataSource>
ChEMBL

> <Article DOI>
10.1016/j.bmcl.2003.11.076

> <BindingDB Entry DOI>
10.7270/Q24M9404

> <PMID>
15013020

> <Authors>
Lau, CK; Bayly, CI; Gauthier, JY; Li, CS; Therien, M; Asante-Appiah, E; Cromlish, W; Boie, Y; Forghani, F; Desmarais, S; Wang, Q; Skorey, K; Waddleton, D; Payette, P; Ramachandran, C; Kennedy, BP; Sca
pin, G

> <Institution>
Merck Frosst Centre for Therapeutic Research

> <Link to Ligand in BindingDB>
http://www.bindingdb.org/bind/chemsearch/marvin/MolStructure.jsp?monomerid=13602

> <Link to Ligand-Target Pair in BindingDB>
http://www.bindingdb.org/jsp/dbsearch/PrimarySearch_ki.jsp?energyterm=kJ/mole&tag=pol&polymerid=2622&target=Tyrosine-protein+phosphatase+non-receptor+type+1&column=ki&startPg=0&Increment=50&submit=Sea
rch
http://www.bindingdb.org/jsp/dbsearch/PrimarySearch_ki.jsp?energyterm=kJ/mole&tag=r21&monomerid=13602&enzyme=Tyrosine-protein+phosphatase+non-receptor+type+1&column=ki&startPg=0&Increment=50&submit=Se
arch

> <Ligand HET ID in PDB>
214

> <PDB ID(s) for Ligand-Target Complex>
1Q6S

> <PubChem CID of Ligand>
10212468

> <PubChem SID of Ligand>
46513996

> <ChEMBL ID of Ligand>
CHEMBL268526

> <ZINC ID of Ligand>
ZINC95608085

> <Number of Protein Chains in Target (bigger than 1 implies a multichain complex)>
1

> <BindingDB Target Chain Sequence>
MEMEKEFEQIDKSGSWAAIYQDIRHEASDFPCRVAKLPKNKNRNRYRDVSPFDHSRIKLHQEDNDYINASLIKMEEAQRSYILTQGPLPNTCGHFWEMVWEQKSRGVVMLNRVMEKGSLKCAQYWPQKEEKEMIFEDTNLKLTLISEDIKSYYTVRQLELENLTTQETREILHFHYTTWPDFGVPESPASFLNFLFKVRE
SGSLSPEHGPVVVHCSAGIGRSGTFCLADTCLLLMDKRKDPSSVDIKKVLLEMRKFRMGLIQTADQLRFSYLAVIEGAKFIMGDSSVQDQWKELSHEDLEPPPEHIPPPPRPPKRILEPHNGKCREFFPNHQWVKEETQEDKDCPIKEEKGSPLNAAPYGIESMSQDTEVRSRVVGGSLRGAQAASPAKGEPSLPEKDED
HALSYWKPFLVNMCVATVLTAGAYLCYRFLFNSNT

> <PDB ID(s) of Target Chain>
1BZJ,1G7G,1GFY,1JF7,1KAK,1KAV,1LQF,1NL9,1NNY,1NO6,1NZ7,1OEM,1OEO,1OES,1OET,1OEU,1OEV,1ONY,1ONZ,1PH0,1PXH,1PYN,1Q1M,1Q6J,1Q6M,1Q6N,1Q6P,1Q6S,1Q6T,1QXK,1SUG,1T48,1T49,1T4J,1WAX,1XBO,2AZR,2B07,2BGD,2BGE,
2CM2,2CM3,2CM7,2CM8,2CMA,2CMB,2CMC,2CNE,2CNF,2CNG,2CNH,2CNI,2F6T,2F6V,2F6W,2F6Y,2F6Z,2F70,2F71,2FJN,2H4G,2H4K,2HB1,2HNP,2HNQ,2QBP,2QBQ,2QBR,2QBS,2VEU,2VEV,2VEW,2VEX,2VEY,2ZMM,2ZN7,3A5J,3CWE,3D9C,3EAX,
3EB1,3EU0,3I7Z,3I80,3SME,4BJO,4I8N,4QBW,4Y14,5K9V,5K9W,5KA0,5KA1,5T19,6B90,6NTP,6W30,7KEY,7KLX,7LFO,7MN9,7MNA,8DU7,8G65,8G67,8G68,8G69,8G6A,8SKL

> <UniProt (SwissProt) Recommended Name of Target Chain>
Tyrosine-protein phosphatase non-receptor type 1

> <UniProt (SwissProt) Entry Name of Target Chain>
PTN1_HUMAN

> <UniProt (SwissProt) Primary ID of Target Chain>
P18031

> <UniProt (SwissProt) Secondary ID(s) of Target Chain>
Q5TGD8 Q9BQV9 Q9NQQ4

$$$$
Molecule
  SciTegic10242319433D

 50 52  0  0  0  0            999 V2000
    3.1439   -3.8232    0.3457 C   0  0
    3.0879   -5.2417    0.2006 C   0  0
    4.1459   -6.0048    0.0822 C   0  0
    5.4618   -5.3752    0.1209 C   0  0
    5.5566   -4.0493    0.2631 C   0  0
    4.3326   -3.1882    0.3512 C   0  0
    1.9044   -3.1925    0.4168 O   0  0
    4.4650   -1.7005    0.4255 N   0  0
    6.0680   -0.9109    0.4999 S   0  0
    5.1646    0.6960    0.4322 C   0  0
    3.7297    0.4746    0.3200 C   0  0
    3.2881   -0.8702    0.3997 C   0  0
    6.9793    0.0355   -0.2569 O   0  0
    6.3557   -1.7330   -0.7408 O   0  0
    2.9311    1.4037    0.1522 O   0  0
    3.9968   -7.5041   -0.1930 C   0  0
    2.7313   -8.3604    0.3295 C   0  0  1  0  0  0
    1.2103   -7.9350   -0.0717 C   0  0  1  0  0  0
    0.2783   -9.0419    0.5644 C   0  0  2  0  0  0
    0.5901  -10.4199   -0.0287 C   0  0
    2.0275  -10.8077    0.3048 C   0  0
    3.0101   -9.7722   -0.2471 C   0  0
   -1.4344   -8.7289    0.3368 Cl  0  0
    0.8269   -6.6696    0.5485 O   0  0
   -0.0417   -5.5052   -0.4450 S   0  0
   -1.4961   -6.1474   -1.3004 C   0  0
    0.8763   -4.9315   -1.5069 O   0  0
   -0.4895   -4.3752    0.4643 O   0  0
    2.1076   -5.7180    0.1877 H   0  0
    6.3626   -5.9828    0.0343 H   0  0
    6.5418   -3.5858    0.3158 H   0  0
    1.8408   -2.6443    1.3101 H   0  0
    5.3695    1.2603    1.3420 H   0  0
    5.5079    1.2633   -0.4329 H   0  0
    2.7052   -1.0192    1.3086 H   0  0
    2.6766   -1.1151   -0.4688 H   0  0
    4.0108   -7.6156   -1.2771 H   0  0
    4.8803   -7.9793    0.2331 H   0  0
    2.7898   -8.4214    1.4162 H   0  0
    1.0875   -7.8939   -1.1540 H   0  0
    0.4776   -9.0797    1.6353 H   0  0
   -0.0918  -11.1586    0.3924 H   0  0
    0.4657  -10.3853   -1.1111 H   0  0
    2.1400  -10.8659    1.3874 H   0  0
    2.2471  -11.7798   -0.1366 H   0  0
    2.9145   -9.7366   -1.3323 H   0  0
    4.0244  -10.0694    0.0193 H   0  0
   -1.9569   -5.3501   -1.8835 H   0  0
   -2.2122   -6.5224   -0.5692 H   0  0
   -1.1986   -6.9580   -1.9657 H   0  0
  1  7  1  0
 11 15  2  0
  3  4  1  0
  3 16  1  0
  6  8  1  0
 16 17  1  0
 17 18  1  0
  8  9  1  0
  4  5  2  0
  2  3  2  0
  5  6  1  0
 17 22  1  0
 18 19  1  0
 19 20  1  0
 20 21  1  0
 21 22  1  0
  9 10  1  0
 19 23  1  0
 10 11  1  0
 18 24  1  0
 11 12  1  0
 24 25  1  0
 12  8  1  0
  6  1  2  0
  9 13  2  0
 25 26  1  0
  1  2  1  0
 25 27  2  0
  9 14  2  0
 25 28  2  0
  2 29  1  0
  4 30  1  0
  5 31  1  0
  7 32  1  0
 10 33  1  0
 10 34  1  0
 12 35  1  0
 12 36  1  0
 16 37  1  0
 16 38  1  0
 17 39  1  0
 18 40  1  0
 19 41  1  0
 20 42  1  0
 20 43  1  0
 21 44  1  0
 21 45  1  0
 22 46  1  0
 22 47  1  0
 26 48  1  0
 26 49  1  0
 26 50  1  0
M  END
> <Name>
Molecule

> <Clean Energy>
125.334

> <From>
www.bindingDB.org

> <BindingDB Reactant_set_id>
50554749

> <Ligand InChI>
InChI=1S/C17H22ClNO7S2/c1-27(22,23)26-17-12(3-2-4-14(17)18)7-11-5-6-15(16(21)8-11)19-9-13(20)10-28(19,24)25/h5-6,8,12,14,17,21H,2-4,7,9-10H2,1H3

> <Ligand InChI Key>
YNGRFRCHJRRWBC-UHFFFAOYSA-N

> <BindingDB MonomerID>
50308841

> <BindingDB Ligand Name>
CHEMBL604457::Methanesulfonic acid 2-chloro-6-[3-hydroxy-4-(1,1,4-trioxo-1lambda*6*-isothiazolidin-2-yl)-benzyl]-cyclohexyl ester

> <Target Name>
Tyrosine-protein phosphatase non-receptor type 1

> <Target Source Organism According to Curator or DataSource>
Homo sapiens

> <IC50 (nM)>
13

> <Curation/DataSource>
ChEMBL

> <Article DOI>
10.1021/jm901090b

> <BindingDB Entry DOI>
10.7270/Q28P60MB

> <PMID>
20000419

> <Authors>
Combs, AP

> <Institution>
Incyte Corporation

> <Link to Ligand in BindingDB>
http://www.bindingdb.org/bind/chemsearch/marvin/MolStructure.jsp?monomerid=50308841

> <Link to Ligand-Target Pair in BindingDB>
http://www.bindingdb.org/jsp/dbsearch/PrimarySearch_ki.jsp?energyterm=kJ/mole&tag=pol&polymerid=2622&target=Tyrosine-protein+phosphatase+non-receptor+type+1&column=ki&startPg=0&Increment=50&submit=Sea
rch
http://www.bindingdb.org/jsp/dbsearch/PrimarySearch_ki.jsp?energyterm=kJ/mole&tag=r21&monomerid=50308841&enzyme=Tyrosine-protein+phosphatase+non-receptor+type+1&column=ki&startPg=0&Increment=50&submit
=Search

> <PubChem CID of Ligand>
46230154

> <PubChem SID of Ligand>
104163202

> <ChEMBL ID of Ligand>
CHEMBL604457

> <ZINC ID of Ligand>
ZINC45386470

> <Number of Protein Chains in Target (bigger than 1 implies a multichain complex)>
1

> <BindingDB Target Chain Sequence>
MEMEKEFEQIDKSGSWAAIYQDIRHEASDFPCRVAKLPKNKNRNRYRDVSPFDHSRIKLHQEDNDYINASLIKMEEAQRSYILTQGPLPNTCGHFWEMVWEQKSRGVVMLNRVMEKGSLKCAQYWPQKEEKEMIFEDTNLKLTLISEDIKSYYTVRQLELENLTTQETREILHFHYTTWPDFGVPESPASFLNFLFKVRE
SGSLSPEHGPVVVHCSAGIGRSGTFCLADTCLLLMDKRKDPSSVDIKKVLLEMRKFRMGLIQTADQLRFSYLAVIEGAKFIMGDSSVQDQWKELSHEDLEPPPEHIPPPPRPPKRILEPHNGKCREFFPNHQWVKEETQEDKDCPIKEEKGSPLNAAPYGIESMSQDTEVRSRVVGGSLRGAQAASPAKGEPSLPEKDED
HALSYWKPFLVNMCVATVLTAGAYLCYRFLFNSNT

> <PDB ID(s) of Target Chain>
1BZJ,1G7G,1GFY,1JF7,1KAK,1KAV,1LQF,1NL9,1NNY,1NO6,1NZ7,1OEM,1OEO,1OES,1OET,1OEU,1OEV,1ONY,1ONZ,1PH0,1PXH,1PYN,1Q1M,1Q6J,1Q6M,1Q6N,1Q6P,1Q6S,1Q6T,1QXK,1SUG,1T48,1T49,1T4J,1WAX,1XBO,2AZR,2B07,2BGD,2BGE,
2CM2,2CM3,2CM7,2CM8,2CMA,2CMB,2CMC,2CNE,2CNF,2CNG,2CNH,2CNI,2F6T,2F6V,2F6W,2F6Y,2F6Z,2F70,2F71,2FJN,2H4G,2H4K,2HB1,2HNP,2HNQ,2QBP,2QBQ,2QBR,2QBS,2VEU,2VEV,2VEW,2VEX,2VEY,2ZMM,2ZN7,3A5J,3CWE,3D9C,3EAX,
3EB1,3EU0,3I7Z,3I80,3SME,4BJO,4I8N,4QBW,4Y14,5K9V,5K9W,5KA0,5KA1,5T19,6B90,6NTP,6W30,7KEY,7KLX,7LFO,7MN9,7MNA,8DU7,8G65,8G67,8G68,8G69,8G6A,8SKL

> <UniProt (SwissProt) Recommended Name of Target Chain>
Tyrosine-protein phosphatase non-receptor type 1

> <UniProt (SwissProt) Entry Name of Target Chain>
PTN1_HUMAN

> <UniProt (SwissProt) Primary ID of Target Chain>
P18031

> <UniProt (SwissProt) Secondary ID(s) of Target Chain>
Q5TGD8 Q9BQV9 Q9NQQ4

$$$$
Molecule
  SciTegic10242319433D

 43 45  0  0  0  0            999 V2000
   -3.7153   -9.7590    0.1870 C   0  0
   -3.7355  -11.2147    0.1591 C   0  0
   -2.6286  -11.9330    0.0062 C   0  0
   -1.3584  -11.2443   -0.0982 C   0  0
   -1.2942   -9.9154   -0.0645 C   0  0
   -2.5443   -9.0908    0.0751 C   0  0
   -0.0910   -9.3526   -0.1381 F   0  0
   -4.9498   -9.1292    0.3180 O   0  0
   -2.4662   -7.6113    0.0788 N   0  0
   -1.0427   -6.7313   -0.1711 S   0  0
   -1.7583   -5.1512   -0.5648 C   0  0
   -3.1177   -5.2920    0.0613 C   0  0
   -3.5967   -6.7201    0.3563 C   0  0
   -0.2884   -6.6695    1.1436 O   0  0
   -0.1617   -7.2096   -1.3099 O   0  0
   -3.8930   -4.3322    0.1322 O   0  0
   -2.6379  -13.4720   -0.0327 C   0  0
   -4.0068  -14.1837    0.2838 C   0  0
   -5.1191  -13.9096   -0.7793 C   0  0
   -6.4186  -14.6280   -0.3614 C   0  0
   -6.1645  -16.1455   -0.3118 C   0  0
   -5.0519  -16.4498    0.7104 C   0  0
   -3.7545  -15.7087    0.3193 C   0  0
   -4.6892  -11.7314    0.2672 H   0  0
   -0.4412  -11.8233   -0.2059 H   0  0
   -4.9512   -8.5377    1.1856 H   0  0
   -1.1939   -4.3331   -0.1175 H   0  0
   -1.8271   -4.9997   -1.6420 H   0  0
   -3.8956   -6.8073    1.4008 H   0  0
   -4.4402   -6.9730   -0.2860 H   0  0
   -2.3311  -13.7780   -1.0329 H   0  0
   -1.9074  -13.8242    0.6956 H   0  0
   -4.3604  -13.8578    1.2620 H   0  0
   -5.3022  -12.8371   -0.8451 H   0  0
   -4.7936  -14.2834   -1.7501 H   0  0
   -6.7281  -14.2779    0.6233 H   0  0
   -7.2032  -14.4134   -1.0870 H   0  0
   -7.0799  -16.6571   -0.0146 H   0  0
   -5.8565  -16.4941   -1.2976 H   0  0
   -5.3711  -16.1203    1.6992 H   0  0
   -4.8625  -17.5231    0.7281 H   0  0
   -3.4304  -16.0440   -0.6659 H   0  0
   -2.9782  -15.9290    1.0521 H   0  0
  6  1  2  0
 10 11  1  0
 11 12  1  0
 12 13  1  0
 13  9  1  0
  1  2  1  0
 10 14  2  0
  5  7  1  0
 10 15  2  0
  3  4  1  0
 12 16  2  0
  1  8  1  0
  3 17  1  0
 17 18  1  0
 18 19  1  0
  6  9  1  0
  9 10  1  0
  4  5  2  0
  2  3  2  0
  5  6  1  0
 18 23  1  0
 19 20  1  0
 20 21  1  0
 21 22  1  0
 22 23  1  0
  2 24  1  0
  4 25  1  0
  8 26  1  0
 11 27  1  0
 11 28  1  0
 13 29  1  0
 13 30  1  0
 17 31  1  0
 17 32  1  0
 18 33  1  0
 19 34  1  0
 19 35  1  0
 20 36  1  0
 20 37  1  0
 21 38  1  0
 21 39  1  0
 22 40  1  0
 22 41  1  0
 23 42  1  0
 23 43  1  0
M  END
> <Name>
Molecule

> <Clean Energy>
24.7297

> <From>
www.bindingDB.org

> <BindingDB Reactant_set_id>
50554750

> <Ligand InChI>
InChI=1S/C16H20FNO4S/c17-14-7-12(6-11-4-2-1-3-5-11)8-15(20)16(14)18-9-13(19)10-23(18,21)22/h7-8,11,20H,1-6,9-10H2

> <Ligand InChI Key>
VTRAIAOHBBZALV-UHFFFAOYSA-N

> <BindingDB MonomerID>
50308842

> <BindingDB Ligand Name>
2-(4-Cyclohexylmethyl-2-fluoro-6-hydroxy-phenyl)-1,1-dioxo-1lambda*6*-isothiazolidin-4-one::CHEMBL592290

> <Target Name>
Tyrosine-protein phosphatase non-receptor type 1

> <Target Source Organism According to Curator or DataSource>
Homo sapiens

> <IC50 (nM)>
14

> <Curation/DataSource>
ChEMBL

> <Article DOI>
10.1021/jm901090b

> <BindingDB Entry DOI>
10.7270/Q28P60MB

> <PMID>
20000419

> <Authors>
Combs, AP

> <Institution>
Incyte Corporation

> <Link to Ligand in BindingDB>
http://www.bindingdb.org/bind/chemsearch/marvin/MolStructure.jsp?monomerid=50308842

> <Link to Ligand-Target Pair in BindingDB>
http://www.bindingdb.org/jsp/dbsearch/PrimarySearch_ki.jsp?energyterm=kJ/mole&tag=pol&polymerid=2622&target=Tyrosine-protein+phosphatase+non-receptor+type+1&column=ki&startPg=0&Increment=50&submit=Sea
rch
http://www.bindingdb.org/jsp/dbsearch/PrimarySearch_ki.jsp?energyterm=kJ/mole&tag=r21&monomerid=50308842&enzyme=Tyrosine-protein+phosphatase+non-receptor+type+1&column=ki&startPg=0&Increment=50&submit
=Search

> <PubChem CID of Ligand>
46230153

> <PubChem SID of Ligand>
104163203

> <ChEMBL ID of Ligand>
CHEMBL592290

> <ZINC ID of Ligand>
ZINC45336491

> <Number of Protein Chains in Target (bigger than 1 implies a multichain complex)>
1

> <BindingDB Target Chain Sequence>
MEMEKEFEQIDKSGSWAAIYQDIRHEASDFPCRVAKLPKNKNRNRYRDVSPFDHSRIKLHQEDNDYINASLIKMEEAQRSYILTQGPLPNTCGHFWEMVWEQKSRGVVMLNRVMEKGSLKCAQYWPQKEEKEMIFEDTNLKLTLISEDIKSYYTVRQLELENLTTQETREILHFHYTTWPDFGVPESPASFLNFLFKVRE
SGSLSPEHGPVVVHCSAGIGRSGTFCLADTCLLLMDKRKDPSSVDIKKVLLEMRKFRMGLIQTADQLRFSYLAVIEGAKFIMGDSSVQDQWKELSHEDLEPPPEHIPPPPRPPKRILEPHNGKCREFFPNHQWVKEETQEDKDCPIKEEKGSPLNAAPYGIESMSQDTEVRSRVVGGSLRGAQAASPAKGEPSLPEKDED
HALSYWKPFLVNMCVATVLTAGAYLCYRFLFNSNT

> <PDB ID(s) of Target Chain>
1BZJ,1G7G,1GFY,1JF7,1KAK,1KAV,1LQF,1NL9,1NNY,1NO6,1NZ7,1OEM,1OEO,1OES,1OET,1OEU,1OEV,1ONY,1ONZ,1PH0,1PXH,1PYN,1Q1M,1Q6J,1Q6M,1Q6N,1Q6P,1Q6S,1Q6T,1QXK,1SUG,1T48,1T49,1T4J,1WAX,1XBO,2AZR,2B07,2BGD,2BGE,
2CM2,2CM3,2CM7,2CM8,2CMA,2CMB,2CMC,2CNE,2CNF,2CNG,2CNH,2CNI,2F6T,2F6V,2F6W,2F6Y,2F6Z,2F70,2F71,2FJN,2H4G,2H4K,2HB1,2HNP,2HNQ,2QBP,2QBQ,2QBR,2QBS,2VEU,2VEV,2VEW,2VEX,2VEY,2ZMM,2ZN7,3A5J,3CWE,3D9C,3EAX,
3EB1,3EU0,3I7Z,3I80,3SME,4BJO,4I8N,4QBW,4Y14,5K9V,5K9W,5KA0,5KA1,5T19,6B90,6NTP,6W30,7KEY,7KLX,7LFO,7MN9,7MNA,8DU7,8G65,8G67,8G68,8G69,8G6A,8SKL

> <UniProt (SwissProt) Recommended Name of Target Chain>
Tyrosine-protein phosphatase non-receptor type 1

> <UniProt (SwissProt) Entry Name of Target Chain>
PTN1_HUMAN

> <UniProt (SwissProt) Primary ID of Target Chain>
P18031

> <UniProt (SwissProt) Secondary ID(s) of Target Chain>
Q5TGD8 Q9BQV9 Q9NQQ4

$$$$
Molecule
  SciTegic10242319433D

 56 60  0  0  0  0            999 V2000
   17.6786    0.6349   -0.3092 C   0  0
   17.6996   -0.6696   -0.5999 C   0  0
   18.9337   -1.4700   -0.3633 C   0  0
   20.0342   -0.8758    0.1061 C   0  0
   20.0004    0.5362    0.4051 C   0  0
   18.8876    1.2226    0.2200 C   0  0
   16.3965    1.4874   -0.6360 C   0  0
   21.3049   -1.6426    0.3616 C   0  0  1  0  0  0
   16.1619    2.9681   -0.0092 C   0  0  2  0  0  0
   14.8204    3.5120   -0.4924 N   0  0
   17.3086    4.0351   -0.1926 C   0  0
   18.5507    3.7397   -0.2672 N   0  0
   17.1385    5.4716   -0.1484 N   0  0
   18.4465    5.9600   -0.2032 C   0  0
   19.2957    4.8848   -0.2819 C   0  0
   20.6169    4.9910   -0.3228 C   0  0
   21.1866    6.3501   -0.3011 C   0  0
   20.3673    7.4104   -0.2334 C   0  0
   18.8906    7.2139   -0.1753 C   0  0
   21.2701   -3.3813    0.1008 S   0  0
   22.9296   -3.5438    0.3085 N   0  5
   23.5243   -2.3096   -0.0880 C   0  0
   22.5114   -1.2259   -0.5136 C   0  0
   20.8914   -3.7113   -1.3305 O   0  0
   20.3958   -4.1079    1.1041 O   0  0
   24.7466   -2.1237   -0.0952 O   0  0
   13.5201    3.0554    0.6370 S   0  0
   12.0147    2.2717    0.0484 C   0  0
   14.1072    2.1280    1.6791 O   0  0
   13.0752    4.3474    1.2916 O   0  0
   10.8950    2.9968    0.0089 C   0  0
    9.6061    2.3665   -0.2993 C   0  0
    9.5416    1.0514   -0.4994 C   0  0
   10.7673    0.2420   -0.4399 C   0  0
   11.9448    0.8200   -0.1846 C   0  0
   21.0879    1.1676    0.8745 F   0  0
    8.4868    3.1093   -0.3356 F   0  0
   16.8113   -1.1491   -1.0112 H   0  0
   18.9386   -2.5396   -0.5729 H   0  0
   18.8810    2.2816    0.4783 H   0  0
   15.5429    0.8857   -0.3238 H   0  0
   16.3794    1.6088   -1.7191 H   0  0
   21.5834   -1.4746    1.4019 H   0  0
   16.0564    2.8244    1.0661 H   0  0
   14.6045    3.1086   -1.4597 H   0  0
   16.2266    6.0282   -0.0880 H   0  0
   21.2555    4.1090   -0.3707 H   0  0
   22.2665    6.4929   -0.3398 H   0  0
   20.7824    8.4182   -0.2210 H   0  0
   18.2056    8.0594   -0.1127 H   0  0
   22.8629   -0.2233   -0.2697 H   0  0
   22.2800   -1.2816   -1.5773 H   0  0
   10.9383    4.0677    0.2074 H   0  0
    8.5827    0.5765   -0.7068 H   0  0
   10.7154   -0.8342   -0.6048 H   0  0
   12.8522    0.2173   -0.1489 H   0  0
 17 18  2  0
  3  4  2  0
 18 19  1  0
 19 14  2  0
  8 20  1  0
  9  7  1  0
  1  2  2  0
  9 10  1  0
  4  5  1  0
 20 21  1  0
 21 22  1  0
 22 23  1  0
  8 23  1  0
  9 11  1  0
 20 24  2  0
 11 12  2  0
 20 25  2  0
 22 26  2  0
  5  6  2  0
 10 27  1  0
 12 15  1  0
 27 28  1  0
 14 13  1  0
 27 29  2  0
 13 11  1  0
 27 30  2  0
  6  1  1  0
 28 31  2  0
  2  3  1  0
 31 32  1  0
 14 15  1  0
 32 33  2  0
  1  7  1  0
 33 34  1  0
 15 16  2  0
 34 35  2  0
 35 28  1  0
  5 36  1  0
 16 17  1  0
 32 37  1  0
  8  4  1  0
  2 38  1  0
  3 39  1  0
  6 40  1  0
  7 41  1  0
  7 42  1  0
  8 43  1  0
  9 44  1  0
 10 45  1  0
 13 46  1  0
 16 47  1  0
 17 48  1  0
 18 49  1  0
 19 50  1  0
 23 51  1  0
 23 52  1  0
 31 53  1  0
 33 54  1  0
 34 55  1  0
 35 56  1  0
M  CHG  1  21  -1
M  END
> <Name>
Molecule

> <Clean Energy>
101.102

> <From>
www.bindingDB.org

> <BindingDB Reactant_set_id>
50350969

> <Ligand InChI>
InChI=1S/C24H20F2N4O5S2/c25-15-4-3-5-16(12-15)36(32,33)29-21(24-27-19-6-1-2-7-20(19)28-24)11-14-8-9-17(18(26)10-14)22-13-23(31)30-37(22,34)35/h1-10,12,21-22,29H,11,13H2,(H2,27,28,30,31)/p-1/t21-,22-/m
0/s1

> <Ligand InChI Key>
VUYYFERUXBYBAD-VXKWHMMOSA-M

> <BindingDB MonomerID>
50189686

> <BindingDB Ligand Name>
CHEMBL381584::N-(1S)-1-(1H-benzimidazol-2-yl)-2-{4-[(5S)-1,1-dioxido-3-oxoisothiazolidin-5-yl]-3-fluorophenyl}ethyl-3-fluorobenzenesulfonamide

> <Target Name>
Tyrosine-protein phosphatase non-receptor type 1

> <Target Source Organism According to Curator or DataSource>
Homo sapiens

> <IC50 (nM)>
15

> <Curation/DataSource>
ChEMBL

> <Article DOI>
10.1021/jm0600904

> <BindingDB Entry DOI>
10.7270/Q2JQ10M8

> <PMID>
16789735

> <Authors>
Combs, AP; Zhu, W; Crawley, ML; Glass, B; Polam, P; Sparks, RB; Modi, D; Takvorian, A; McLaughlin, E; Yue, EW; Wasserman, Z; Bower, M; Wei, M; Rupar, M; Ala, PJ; Reid, BM; Ellis, D; Gonneville, L; Emm
, T; Taylor, N; Yeleswaram, S; Li, Y; Wynn, R; Burn, TC; Hollis, G; Liu, PC; Metcalf, B

> <Institution>
Incyte Corporation

> <Link to Ligand in BindingDB>
http://www.bindingdb.org/bind/chemsearch/marvin/MolStructure.jsp?monomerid=50189686

> <Link to Ligand-Target Pair in BindingDB>
http://www.bindingdb.org/jsp/dbsearch/PrimarySearch_ki.jsp?energyterm=kJ/mole&tag=pol&polymerid=2622&target=Tyrosine-protein+phosphatase+non-receptor+type+1&column=ki&startPg=0&Increment=50&submit=Sea
rch
http://www.bindingdb.org/jsp/dbsearch/PrimarySearch_ki.jsp?energyterm=kJ/mole&tag=r21&monomerid=50189686&enzyme=Tyrosine-protein+phosphatase+non-receptor+type+1&column=ki&startPg=0&Increment=50&submit
=Search

> <PubChem CID of Ligand>
91936151

> <PubChem SID of Ligand>
104073207

> <ChEMBL ID of Ligand>
CHEMBL381584

> <ZINC ID of Ligand>
ZINC36088401

> <Number of Protein Chains in Target (bigger than 1 implies a multichain complex)>
1

> <BindingDB Target Chain Sequence>
MEMEKEFEQIDKSGSWAAIYQDIRHEASDFPCRVAKLPKNKNRNRYRDVSPFDHSRIKLHQEDNDYINASLIKMEEAQRSYILTQGPLPNTCGHFWEMVWEQKSRGVVMLNRVMEKGSLKCAQYWPQKEEKEMIFEDTNLKLTLISEDIKSYYTVRQLELENLTTQETREILHFHYTTWPDFGVPESPASFLNFLFKVRE
SGSLSPEHGPVVVHCSAGIGRSGTFCLADTCLLLMDKRKDPSSVDIKKVLLEMRKFRMGLIQTADQLRFSYLAVIEGAKFIMGDSSVQDQWKELSHEDLEPPPEHIPPPPRPPKRILEPHNGKCREFFPNHQWVKEETQEDKDCPIKEEKGSPLNAAPYGIESMSQDTEVRSRVVGGSLRGAQAASPAKGEPSLPEKDED
HALSYWKPFLVNMCVATVLTAGAYLCYRFLFNSNT

> <PDB ID(s) of Target Chain>
1BZJ,1G7G,1GFY,1JF7,1KAK,1KAV,1LQF,1NL9,1NNY,1NO6,1NZ7,1OEM,1OEO,1OES,1OET,1OEU,1OEV,1ONY,1ONZ,1PH0,1PXH,1PYN,1Q1M,1Q6J,1Q6M,1Q6N,1Q6P,1Q6S,1Q6T,1QXK,1SUG,1T48,1T49,1T4J,1WAX,1XBO,2AZR,2B07,2BGD,2BGE,
2CM2,2CM3,2CM7,2CM8,2CMA,2CMB,2CMC,2CNE,2CNF,2CNG,2CNH,2CNI,2F6T,2F6V,2F6W,2F6Y,2F6Z,2F70,2F71,2FJN,2H4G,2H4K,2HB1,2HNP,2HNQ,2QBP,2QBQ,2QBR,2QBS,2VEU,2VEV,2VEW,2VEX,2VEY,2ZMM,2ZN7,3A5J,3CWE,3D9C,3EAX,
3EB1,3EU0,3I7Z,3I80,3SME,4BJO,4I8N,4QBW,4Y14,5K9V,5K9W,5KA0,5KA1,5T19,6B90,6NTP,6W30,7KEY,7KLX,7LFO,7MN9,7MNA,8DU7,8G65,8G67,8G68,8G69,8G6A,8SKL

> <UniProt (SwissProt) Recommended Name of Target Chain>
Tyrosine-protein phosphatase non-receptor type 1

> <UniProt (SwissProt) Entry Name of Target Chain>
PTN1_HUMAN

> <UniProt (SwissProt) Primary ID of Target Chain>
P18031

> <UniProt (SwissProt) Secondary ID(s) of Target Chain>
Q5TGD8 Q9BQV9 Q9NQQ4

$$$$
Molecule
  SciTegic10242319433D

 91 94  0  0  0  0            999 V2000
   -5.1190   -0.5232   -0.8636 C   0  0
   -5.2706   -1.9778   -0.8233 C   0  0
   -4.5204   -2.7191   -0.0100 C   0  0
   -3.5882   -2.0664    0.9128 C   0  0
   -3.4696   -0.7373    0.9050 C   0  0
   -4.2437    0.0895   -0.0710 C   0  0
   -4.0224    1.5235   -0.3121 O   0  0
   -2.9282    2.2817    0.3786 C   0  0
   -1.4622    1.8097    0.0959 C   0  0
   -1.2227    0.5451   -0.5429 C   0  0
   -0.0271    0.0158   -0.5996 C   0  0
    1.1073    0.7153   -0.0907 C   0  0
    0.9749    1.9416    0.4155 C   0  0
   -0.4088    2.5140    0.5353 C   0  0
    2.3263   -0.0495   -0.0778 C   0  0
    2.1173   -1.3579   -0.0427 C   0  0
    3.1862   -2.2590    0.0803 C   0  0
    4.4126   -1.7856    0.1532 C   0  0
    4.7324   -0.3707    0.0641 C   0  0
    3.7065    0.4953   -0.0252 C   0  0
    6.2185    0.1831    0.0150 C   0  0
    7.5673   -0.6215    0.0831 N   0  0
    8.7556    0.2250    0.3827 C   0  0
    7.7657   -2.1168   -0.0866 C   0  0
    6.8942   -2.8692   -0.7433 C   0  0
    7.0156   -4.3049   -0.8521 C   0  0
    8.0478   -4.9329   -0.3134 C   0  0
    9.0814   -4.1511    0.3789 C   0  0
    8.9503   -2.8239    0.4953 C   0  0
    8.1072   -6.4396   -0.4046 C   0  0
    6.6490   -6.9547    0.0014 C   0  0
    6.3670   -8.4726   -0.1294 C   0  0
    9.3269   -6.9614    0.4465 C   0  0
    9.6450   -8.4694    0.2765 C   0  0
    8.3796    1.7295    0.3699 C   0  0
    9.9217    0.0212   -0.6272 C   0  0
   -4.6270   -4.2267   -0.1106 C   0  0
   -3.3102   -4.9740    0.2818 C   0  0  1  0  0  0
   -3.5446   -6.4616    0.0989 C   0  0
   -2.1671   -4.5573   -0.5197 N   0  0
   -4.7015   -6.8922    0.0576 O   0  0
   -2.4804   -7.3426   -0.0942 O   0  0
   -0.9159   -4.9001   -0.1877 C   0  0
   -0.7005   -5.5947    0.8130 O   0  0
    0.2331   -4.4603   -1.0448 C   0  0
   -5.7291    0.0642   -1.5497 H   0  0
   -6.0063   -2.4605   -1.4666 H   0  0
   -2.9936   -2.6645    1.6033 H   0  0
   -2.8026   -0.2502    1.6163 H   0  0
   -3.0045    3.3250    0.0722 H   0  0
   -3.0991    2.2043    1.4523 H   0  0
   -2.0601    0.0117   -0.9928 H   0  0
    0.1036   -0.9721   -1.0413 H   0  0
    1.8468    2.5132    0.7337 H   0  0
   -0.5563    3.4990    0.9781 H   0  0
    1.0988   -1.7402   -0.1103 H   0  0
    3.0041   -3.3331    0.1148 H   0  0
    5.2315   -2.4924    0.2875 H   0  0
    3.8843    1.5702   -0.0581 H   0  0
    6.2746    0.7308   -0.9258 H   0  0
    6.2763    0.8838    0.8479 H   0  0
    9.1162   -0.0301    1.3791 H   0  0
    6.0460   -2.3819   -1.2240 H   0  0
    6.2516   -4.8743   -1.3815 H   0  0
    9.9546   -4.6515    0.7974 H   0  0
    9.7150   -2.2512    1.0200 H   0  0
    8.2826   -6.7084   -1.4463 H   0  0
    6.4837   -6.6801    1.0432 H   0  0
    5.9303   -6.4331   -0.6308 H   0  0
    5.3423   -8.6802    0.1787 H   0  0
    7.0566   -9.0270    0.5072 H   0  0
    6.5034   -8.7800   -1.1663 H   0  0
   10.2106   -6.3941    0.1543 H   0  0
    9.1083   -6.7781    1.4985 H   0  0
   10.4984   -8.7339    0.9008 H   0  0
    9.8812   -8.6761   -0.7674 H   0  0
    8.7793   -9.0600    0.5764 H   0  0
    7.5626    1.9063    1.0694 H   0  0
    8.0667    2.0178   -0.6337 H   0  0
    9.2448    2.3233    0.6649 H   0  0
   10.2107   -1.0296   -0.6421 H   0  0
   10.7753    0.6279   -0.3246 H   0  0
    9.5972    0.3224   -1.6233 H   0  0
   -5.4240   -4.5610    0.5536 H   0  0
   -4.8774   -4.4867   -1.1391 H   0  0
   -3.0939   -4.7782    1.3320 H   0  0
   -2.3312   -3.9632   -1.3943 H   0  0
   -1.9546   -7.0724   -0.9620 H   0  0
    1.1662   -4.8307   -0.6205 H   0  0
    0.2603   -3.3714   -1.0860 H   0  0
    0.1091   -4.8585   -2.0519 H   0  0
  6  1  2  0
 24 25  2  0
 11 12  1  0
 25 26  1  0
  1  2  1  0
 26 27  2  0
 12 13  2  0
 27 28  1  0
 28 29  2  0
 29 24  1  0
 13 14  1  0
 27 30  1  0
 14  9  2  0
 30 31  1  0
  3  4  1  0
 31 32  1  0
 12 15  1  0
 30 33  1  0
  6  7  1  0
 33 34  1  0
 15 16  2  0
 23 35  1  0
 23 36  1  0
 16 17  1  0
  7  8  1  0
 17 18  2  0
  4  5  2  0
 18 19  1  0
  8  9  1  0
 19 20  2  0
 20 15  1  0
  3 37  1  0
  2  3  2  0
 38 37  1  0
 19 21  1  0
 38 39  1  0
  9 10  1  0
 38 40  1  0
 21 22  1  0
 39 41  2  0
  5  6  1  0
 39 42  1  0
 22 23  1  0
 40 43  1  0
 10 11  2  0
 43 44  2  0
 22 24  1  0
 43 45  1  0
  1 46  1  0
  2 47  1  0
  4 48  1  0
  5 49  1  0
  8 50  1  0
  8 51  1  0
 10 52  1  0
 11 53  1  0
 13 54  1  0
 14 55  1  0
 16 56  1  0
 17 57  1  0
 18 58  1  0
 20 59  1  0
 21 60  1  0
 21 61  1  0
 23 62  1  0
 25 63  1  0
 26 64  1  0
 28 65  1  0
 29 66  1  0
 30 67  1  0
 31 68  1  0
 31 69  1  0
 32 70  1  0
 32 71  1  0
 32 72  1  0
 33 73  1  0
 33 74  1  0
 34 75  1  0
 34 76  1  0
 34 77  1  0
 35 78  1  0
 35 79  1  0
 35 80  1  0
 36 81  1  0
 36 82  1  0
 36 83  1  0
 37 84  1  0
 37 85  1  0
 38 86  1  0
 40 87  1  0
 42 88  1  0
 45 89  1  0
 45 90  1  0
 45 91  1  0
M  END
> <Name>
Molecule

> <Clean Energy>
80.5868

> <From>
www.bindingDB.org

> <BindingDB Reactant_set_id>
50554764

> <Ligand InChI>
InChI=1S/C39H46N2O4/c1-6-32(7-2)33-17-19-36(20-18-33)41(27(3)4)25-31-9-8-10-35(23-31)34-15-11-30(12-16-34)26-45-37-21-13-29(14-22-37)24-38(39(43)44)40-28(5)42/h8-23,27,32,38H,6-7,24-26H2,1-5H3,(H,40,4
2)(H,43,44)/t38-/m0/s1

> <Ligand InChI Key>
JDFRKUJJQWZYGD-LHEWISCISA-N

> <BindingDB MonomerID>
50308847

> <BindingDB Ligand Name>
(S)-2-acetamido-3-(4-((3'-((isopropyl(4-(pentan-3-yl)phenyl)amino)methyl)biphenyl-4-yl)methoxy)phenyl)propanoic acid::CHEMBL590480

> <Target Name>
Tyrosine-protein phosphatase non-receptor type 1

> <Target Source Organism According to Curator or DataSource>
Homo sapiens

> <IC50 (nM)>
16

> <Curation/DataSource>
ChEMBL

> <Article DOI>
10.1021/jm901090b

> <BindingDB Entry DOI>
10.7270/Q28P60MB

> <PMID>
20000419

> <Authors>
Combs, AP

> <Institution>
Incyte Corporation

> <Link to Ligand in BindingDB>
http://www.bindingdb.org/bind/chemsearch/marvin/MolStructure.jsp?monomerid=50308847

> <Link to Ligand-Target Pair in BindingDB>
http://www.bindingdb.org/jsp/dbsearch/PrimarySearch_ki.jsp?energyterm=kJ/mole&tag=pol&polymerid=2622&target=Tyrosine-protein+phosphatase+non-receptor+type+1&column=ki&startPg=0&Increment=50&submit=Sea
rch
http://www.bindingdb.org/jsp/dbsearch/PrimarySearch_ki.jsp?energyterm=kJ/mole&tag=r21&monomerid=50308847&enzyme=Tyrosine-protein+phosphatase+non-receptor+type+1&column=ki&startPg=0&Increment=50&submit
=Search

> <PubChem CID of Ligand>
46230054

> <PubChem SID of Ligand>
104163208

> <ChEMBL ID of Ligand>
CHEMBL590480

> <KEGG ID of Ligand>
C02847

> <ZINC ID of Ligand>
ZINC43195212

> <Number of Protein Chains in Target (bigger than 1 implies a multichain complex)>
1

> <BindingDB Target Chain Sequence>
MEMEKEFEQIDKSGSWAAIYQDIRHEASDFPCRVAKLPKNKNRNRYRDVSPFDHSRIKLHQEDNDYINASLIKMEEAQRSYILTQGPLPNTCGHFWEMVWEQKSRGVVMLNRVMEKGSLKCAQYWPQKEEKEMIFEDTNLKLTLISEDIKSYYTVRQLELENLTTQETREILHFHYTTWPDFGVPESPASFLNFLFKVRE
SGSLSPEHGPVVVHCSAGIGRSGTFCLADTCLLLMDKRKDPSSVDIKKVLLEMRKFRMGLIQTADQLRFSYLAVIEGAKFIMGDSSVQDQWKELSHEDLEPPPEHIPPPPRPPKRILEPHNGKCREFFPNHQWVKEETQEDKDCPIKEEKGSPLNAAPYGIESMSQDTEVRSRVVGGSLRGAQAASPAKGEPSLPEKDED
HALSYWKPFLVNMCVATVLTAGAYLCYRFLFNSNT

> <PDB ID(s) of Target Chain>
1BZJ,1G7G,1GFY,1JF7,1KAK,1KAV,1LQF,1NL9,1NNY,1NO6,1NZ7,1OEM,1OEO,1OES,1OET,1OEU,1OEV,1ONY,1ONZ,1PH0,1PXH,1PYN,1Q1M,1Q6J,1Q6M,1Q6N,1Q6P,1Q6S,1Q6T,1QXK,1SUG,1T48,1T49,1T4J,1WAX,1XBO,2AZR,2B07,2BGD,2BGE,
2CM2,2CM3,2CM7,2CM8,2CMA,2CMB,2CMC,2CNE,2CNF,2CNG,2CNH,2CNI,2F6T,2F6V,2F6W,2F6Y,2F6Z,2F70,2F71,2FJN,2H4G,2H4K,2HB1,2HNP,2HNQ,2QBP,2QBQ,2QBR,2QBS,2VEU,2VEV,2VEW,2VEX,2VEY,2ZMM,2ZN7,3A5J,3CWE,3D9C,3EAX,
3EB1,3EU0,3I7Z,3I80,3SME,4BJO,4I8N,4QBW,4Y14,5K9V,5K9W,5KA0,5KA1,5T19,6B90,6NTP,6W30,7KEY,7KLX,7LFO,7MN9,7MNA,8DU7,8G65,8G67,8G68,8G69,8G6A,8SKL

> <UniProt (SwissProt) Recommended Name of Target Chain>
Tyrosine-protein phosphatase non-receptor type 1

> <UniProt (SwissProt) Entry Name of Target Chain>
PTN1_HUMAN

> <UniProt (SwissProt) Primary ID of Target Chain>
P18031

> <UniProt (SwissProt) Secondary ID(s) of Target Chain>
Q5TGD8 Q9BQV9 Q9NQQ4

$$$$
Molecule
  SciTegic10242319433D

 51 54  0  0  0  0            999 V2000
   -4.7487    0.8887    0.5342 C   0  0
   -4.8959   -0.3789   -0.1533 C   0  0
   -3.8016   -1.0789   -0.4844 C   0  0
   -2.4321   -0.5275   -0.1870 C   0  0
   -2.3185    0.6652    0.4109 C   0  0
   -3.5422    1.3754    0.8018 C   0  0
   -1.0051    1.4845    0.5916 C   0  0
    0.3568    1.1884   -0.2073 C   0  0  3  0  0  0
   -6.2965   -0.7938   -0.6192 C   0  0
   -7.0443   -1.9536    0.3032 P   0  0
   -7.2327   -1.4476    1.7528 O   0  0
   -8.2861   -2.2015   -0.2524 O   0  0
   -6.2191   -3.2596    0.2999 O   0  0
   -6.1934   -1.3149   -1.8901 F   0  0
   -7.1061    0.3253   -0.6060 F   0  0
    1.3081    0.1562    0.3473 N   0  0
    1.0940    2.5269   -0.1943 C   0  0
    2.3079    2.6456   -0.7378 C   0  0
    2.9780    3.9482   -0.7718 C   0  0
    2.3664    5.0272   -0.2868 C   0  0
    1.0272    4.9109    0.2891 C   0  0
    0.4238    3.7247    0.3371 C   0  0
    0.0849    0.9496   -1.7168 C   0  0
    2.4461    0.5100    1.0645 N   0  0
    3.2041   -0.4487    1.2250 N   0  0
    2.6320   -1.5677    0.6373 C   0  0
    1.4188   -1.2070    0.0932 C   0  0
    0.6286   -2.0742   -0.5278 C   0  0
    1.1082   -3.4751   -0.6195 C   0  0
    2.2967   -3.8169   -0.0984 C   0  0
    3.1210   -2.8005    0.5795 C   0  0
   -5.6354    1.4471    0.8340 H   0  0
   -3.9033   -2.0494   -0.9700 H   0  0
   -1.5409   -1.0945   -0.4561 H   0  0
   -3.4585    2.3276    1.3257 H   0  0
   -0.7506    1.4048    1.6485 H   0  0
   -1.2664    2.5164    0.3571 H   0  0
   -6.2953   -1.2284    2.1721 H   0  0
   -6.1268   -3.6133   -0.6844 H   0  0
    2.8024    1.7697   -1.1579 H   0  0
    3.9789    4.0343   -1.1949 H   0  0
    2.8637    5.9966   -0.3191 H   0  0
    0.5230    5.7951    0.6791 H   0  0
   -0.5720    3.6404    0.7724 H   0  0
   -0.6037    1.7091   -2.0870 H   0  0
   -0.3554   -0.0378   -1.8555 H   0  0
    1.0225    1.0098   -2.2694 H   0  0
   -0.3290   -1.7709   -0.9510 H   0  0
    0.4936   -4.2289   -1.1115 H   0  0
    2.6518   -4.8445   -0.1763 H   0  0
    4.0890   -3.0498    1.0140 H   0  0
  3  4  1  0
  8 16  1  0
  7  8  1  0
  8 17  1  0
 17 18  2  0
  2  9  1  0
 18 19  1  0
  4  5  2  0
 19 20  2  0
  9 10  1  0
 20 21  1  0
  2  3  2  0
 21 22  2  0
 22 17  1  0
 10 11  1  0
  8 23  1  0
 16 27  1  0
  5  6  1  0
 25 24  2  0
 24 16  1  0
 10 12  2  0
 25 26  1  0
  6  1  2  0
 10 13  1  0
 26 27  1  0
  1  2  1  0
 27 28  2  0
  9 14  1  0
 28 29  1  0
  5  7  1  0
 29 30  2  0
  9 15  1  0
 30 31  1  0
 31 26  2  0
  1 32  1  0
  3 33  1  0
  4 34  1  0
  6 35  1  0
  7 36  1  0
  7 37  1  0
 11 38  1  0
 13 39  1  0
 18 40  1  0
 19 41  1  0
 20 42  1  0
 21 43  1  0
 22 44  1  0
 23 45  1  0
 23 46  1  0
 23 47  1  0
 28 48  1  0
 29 49  1  0
 30 50  1  0
 31 51  1  0
M  END
> <Name>
Molecule

> <Clean Energy>
78.6398

> <From>
www.bindingDB.org

> <BindingDB Reactant_set_id>
50859534

> <Ligand InChI>
InChI=1S/C22H20F2N3O3P/c1-21(17-7-3-2-4-8-17,27-20-10-6-5-9-19(20)25-26-27)15-16-11-13-18(14-12-16)22(23,24)31(28,29)30/h2-14H,15H2,1H3,(H2,28,29,30)

> <Ligand InChI Key>
KDMISQLRTSCPQK-UHFFFAOYSA-N

> <BindingDB MonomerID>
50373441

> <BindingDB Ligand Name>
CHEMBL410646

> <Target Name>
Tyrosine-protein phosphatase non-receptor type 1

> <Target Source Organism According to Curator or DataSource>
Homo sapiens

> <IC50 (nM)>
16

> <Curation/DataSource>
ChEMBL

> <Article DOI>
10.1016/j.bmcl.2008.04.064

> <BindingDB Entry DOI>
10.7270/Q24M95DX

> <PMID>
18477508

> <Authors>
Han, Y; Belley, M; Bayly, CI; Colucci, J; Dufresne, C; Giroux, A; Lau, CK; Leblanc, Y; McKay, D; Therien, M; Wilson, MC; Skorey, K; Chan, CC; Scapin, G; Kennedy, BP

> <Institution>
Merck Frosst Centre for Therapeutic Research

> <Link to Ligand in BindingDB>
http://www.bindingdb.org/bind/chemsearch/marvin/MolStructure.jsp?monomerid=50373441

> <Link to Ligand-Target Pair in BindingDB>
http://www.bindingdb.org/jsp/dbsearch/PrimarySearch_ki.jsp?energyterm=kJ/mole&tag=pol&polymerid=2622&target=Tyrosine-protein+phosphatase+non-receptor+type+1&column=ki&startPg=0&Increment=50&submit=Sea
rch
http://www.bindingdb.org/jsp/dbsearch/PrimarySearch_ki.jsp?energyterm=kJ/mole&tag=r21&monomerid=50373441&enzyme=Tyrosine-protein+phosphatase+non-receptor+type+1&column=ki&startPg=0&Increment=50&submit
=Search

> <PubChem CID of Ligand>
44449698

> <PubChem SID of Ligand>
160852542

> <ChEMBL ID of Ligand>
CHEMBL410646

> <ZINC ID of Ligand>
ZINC29048136

> <Number of Protein Chains in Target (bigger than 1 implies a multichain complex)>
1

> <BindingDB Target Chain Sequence>
MEMEKEFEQIDKSGSWAAIYQDIRHEASDFPCRVAKLPKNKNRNRYRDVSPFDHSRIKLHQEDNDYINASLIKMEEAQRSYILTQGPLPNTCGHFWEMVWEQKSRGVVMLNRVMEKGSLKCAQYWPQKEEKEMIFEDTNLKLTLISEDIKSYYTVRQLELENLTTQETREILHFHYTTWPDFGVPESPASFLNFLFKVRE
SGSLSPEHGPVVVHCSAGIGRSGTFCLADTCLLLMDKRKDPSSVDIKKVLLEMRKFRMGLIQTADQLRFSYLAVIEGAKFIMGDSSVQDQWKELSHEDLEPPPEHIPPPPRPPKRILEPHNGKCREFFPNHQWVKEETQEDKDCPIKEEKGSPLNAAPYGIESMSQDTEVRSRVVGGSLRGAQAASPAKGEPSLPEKDED
HALSYWKPFLVNMCVATVLTAGAYLCYRFLFNSNT

> <PDB ID(s) of Target Chain>
1BZJ,1G7G,1GFY,1JF7,1KAK,1KAV,1LQF,1NL9,1NNY,1NO6,1NZ7,1OEM,1OEO,1OES,1OET,1OEU,1OEV,1ONY,1ONZ,1PH0,1PXH,1PYN,1Q1M,1Q6J,1Q6M,1Q6N,1Q6P,1Q6S,1Q6T,1QXK,1SUG,1T48,1T49,1T4J,1WAX,1XBO,2AZR,2B07,2BGD,2BGE,
2CM2,2CM3,2CM7,2CM8,2CMA,2CMB,2CMC,2CNE,2CNF,2CNG,2CNH,2CNI,2F6T,2F6V,2F6W,2F6Y,2F6Z,2F70,2F71,2FJN,2H4G,2H4K,2HB1,2HNP,2HNQ,2QBP,2QBQ,2QBR,2QBS,2VEU,2VEV,2VEW,2VEX,2VEY,2ZMM,2ZN7,3A5J,3CWE,3D9C,3EAX,
3EB1,3EU0,3I7Z,3I80,3SME,4BJO,4I8N,4QBW,4Y14,5K9V,5K9W,5KA0,5KA1,5T19,6B90,6NTP,6W30,7KEY,7KLX,7LFO,7MN9,7MNA,8DU7,8G65,8G67,8G68,8G69,8G6A,8SKL

> <UniProt (SwissProt) Recommended Name of Target Chain>
Tyrosine-protein phosphatase non-receptor type 1

> <UniProt (SwissProt) Entry Name of Target Chain>
PTN1_HUMAN

> <UniProt (SwissProt) Primary ID of Target Chain>
P18031

> <UniProt (SwissProt) Secondary ID(s) of Target Chain>
Q5TGD8 Q9BQV9 Q9NQQ4

$$$$
Molecule
  SciTegic10242319433D

 73 77  0  0  0  0            999 V2000
   -4.4976   -3.3553   -0.3738 N   0  0
   -4.4569   -4.5311    0.3856 N   0  0
   -1.6356    6.4443   -0.0400 P   0  0
    3.8322   -6.5733   -0.0063 P   0  0
    3.3930   -4.9659   -0.1130 C   0  0
   -0.1292    5.7145   -0.1362 C   0  0
   -5.5836   -4.9937    0.5938 N   0  0
   -3.2428   -2.4056   -0.6385 C   0  0  1  0  0  0
   -5.9110   -3.1665   -0.6679 C   0  0
   -6.5459   -4.1830   -0.0075 C   0  0
   -0.1990    4.2031   -0.0336 C   0  0
    1.8837   -4.7285   -0.1860 C   0  0
   -2.4453    6.0394   -1.0831 O   0  0
    3.3864   -7.2493   -1.1230 O   0  0
   -2.5056   -3.8256   -0.1962 C   0  0
   -4.0542   -1.2445    0.0678 C   0  0
   -1.6264   -0.5260    0.1922 C   0  0
    3.9838   -4.3733   -1.2062 F   0  0
    0.4553    6.0495   -1.3379 F   0  0
    3.8659   -4.3519    1.0309 F   0  0
    0.7008    6.1697    0.8656 F   0  0
   -0.4422   -0.0244    0.5114 C   0  0
   -2.3063    6.0795    1.3114 O   0  0
   -1.4558    7.9818   -0.1160 O   0  0
    3.2478   -7.2285    1.2722 O   0  0
    5.3823   -6.6557    0.0561 O   0  0
    1.3846   -3.6762   -1.0782 C   0  0
   -1.3288    3.5489   -0.2891 C   0  0
    1.0189   -5.4227    0.5544 C   0  0
    0.9929    3.4523    0.3959 C   0  0
   -2.1186   -1.9627    0.4214 C   0  0
   -0.9088   -4.1307   -0.2782 C   0  0
   -0.3100    1.4205    0.2790 C   0  0
    0.0837   -3.3904   -1.1452 C   0  0
   -0.4313   -5.1108    0.5031 C   0  0
    0.9399    2.1272    0.5452 C   0  0
   -1.3845    2.1020   -0.1236 C   0  0
   -6.5952   -2.2492   -1.3623 C   0  0
   -7.8671   -4.3203    0.0269 C   0  0
   -4.4535   -0.1650   -0.6409 C   0  0
   -4.4216   -1.3292    1.5190 C   0  0
   -8.0691   -2.3407   -1.3738 C   0  0
   -8.6783   -3.3232   -0.6994 C   0  0
   -5.1194   -0.3463    2.0841 C   0  0
   -5.2118    0.9038    0.0022 C   0  0
   -5.5275    0.8186    1.2930 C   0  0
   -2.7733   -3.9747    0.8499 H   0  0
   -2.9771   -4.5963   -0.8058 H   0  0
   -2.3290    0.1565   -0.2860 H   0  0
    0.3673   -0.6336    0.9133 H   0  0
   -2.4191    5.0376    1.3767 H   0  0
   -0.8543    8.3042    0.6821 H   0  0
    3.6086   -6.7252    2.1202 H   0  0
    5.7912   -6.2290   -0.8117 H   0  0
    2.0886   -3.1190   -1.6963 H   0  0
   -2.2119    4.0945   -0.6218 H   0  0
    1.3788   -6.2234    1.2005 H   0  0
    1.9246    3.9824    0.5932 H   0  0
   -1.2697   -2.6408    0.3341 H   0  0
   -2.5381   -2.0322    1.4250 H   0  0
   -0.2663   -2.6177   -1.8298 H   0  0
   -1.1234   -5.6909    1.1137 H   0  0
    1.8243    1.5756    0.8639 H   0  0
   -2.3135    1.5709   -0.3308 H   0  0
   -6.0789   -1.4567   -1.9041 H   0  0
   -8.3354   -5.1399    0.5720 H   0  0
   -4.2074   -0.0919   -1.7002 H   0  0
   -4.1180   -2.1933    2.1099 H   0  0
   -8.6584   -1.6112   -1.9293 H   0  0
   -9.7664   -3.3867   -0.6864 H   0  0
   -5.3882   -0.4079    3.1386 H   0  0
   -5.5206    1.7746   -0.5761 H   0  0
   -6.0939    1.6213    1.7651 H   0  0
  2  1  1  0
  3  6  1  0
  4  5  1  0
  5 12  1  0
  6 11  1  0
  7  2  2  0
  8  1  1  0
  9  1  1  0
 10  9  1  0
 11 28  2  0
 12 29  2  0
 13  3  2  0
 14  4  2  0
 15  8  1  0
 16  8  1  0
 17 31  1  0
 18  5  1  0
 19  6  1  0
 20  5  1  0
 21  6  1  0
 22 17  2  0
 23  3  1  0
 24  3  1  0
 25  4  1  0
 26  4  1  0
 27 34  2  0
 28 37  1  0
 29 35  1  0
 30 36  2  0
 31  8  1  0
 32 15  1  0
 33 22  1  0
 34 32  1  0
 35 32  2  0
 36 33  1  0
 37 33  2  0
 38  9  2  0
 39 10  2  0
 40 16  2  0
 41 16  1  0
 42 38  1  0
 43 42  2  0
 44 41  2  0
 45 40  1  0
 46 44  1  0
  7 10  1  0
 39 43  1  0
 46 45  2  0
 12 27  1  0
 30 11  1  0
 15 47  1  0
 15 48  1  0
 17 49  1  0
 22 50  1  0
 23 51  1  0
 24 52  1  0
 25 53  1  0
 26 54  1  0
 27 55  1  0
 28 56  1  0
 29 57  1  0
 30 58  1  0
 31 59  1  0
 31 60  1  0
 34 61  1  0
 35 62  1  0
 36 63  1  0
 37 64  1  0
 38 65  1  0
 39 66  1  0
 40 67  1  0
 41 68  1  0
 42 69  1  0
 43 70  1  0
 44 71  1  0
 45 72  1  0
 46 73  1  0
M  END
> <Name>
Molecule

> <Clean Energy>
193.283

> <From>
www.bindingDB.org

> <BindingDB Reactant_set_id>
50026901

> <Ligand InChI>
InChI=1S/C31H27F4N3O6P2/c32-30(33,45(39,40)41)25-16-12-22(13-17-25)7-6-20-29(24-8-2-1-3-9-24,38-28-11-5-4-10-27(28)36-37-38)21-23-14-18-26(19-15-23)31(34,35)46(42,43)44/h1-19H,20-21H2,(H2,39,40,41)(H2
,42,43,44)/b7-6+

> <Ligand InChI Key>
IQWGAAHPACZIDQ-VOTSOKGWSA-N

> <BindingDB MonomerID>
50142335

> <BindingDB Ligand Name>
CHEMBL274435::[(4-{4-Benzotriazol-1-yl-5-[4-(difluoro-phosphono-methyl)-phenyl]-4-phenyl-pent-1-enyl}-phenyl)-difluoro-methyl]-phosphonic acid

> <Target Name>
Tyrosine-protein phosphatase non-receptor type 1

> <Target Source Organism According to Curator or DataSource>
Homo sapiens

> <IC50 (nM)>
16

> <Curation/DataSource>
ChEMBL

> <Article DOI>
10.1016/j.bmcl.2003.11.076

> <BindingDB Entry DOI>
10.7270/Q24M9404

> <PMID>
15013020

> <Authors>
Lau, CK; Bayly, CI; Gauthier, JY; Li, CS; Therien, M; Asante-Appiah, E; Cromlish, W; Boie, Y; Forghani, F; Desmarais, S; Wang, Q; Skorey, K; Waddleton, D; Payette, P; Ramachandran, C; Kennedy, BP; Sca
pin, G

> <Institution>
Merck Frosst Centre for Therapeutic Research

> <Link to Ligand in BindingDB>
http://www.bindingdb.org/bind/chemsearch/marvin/MolStructure.jsp?monomerid=50142335

> <Link to Ligand-Target Pair in BindingDB>
http://www.bindingdb.org/jsp/dbsearch/PrimarySearch_ki.jsp?energyterm=kJ/mole&tag=pol&polymerid=2622&target=Tyrosine-protein+phosphatase+non-receptor+type+1&column=ki&startPg=0&Increment=50&submit=Sea
rch
http://www.bindingdb.org/jsp/dbsearch/PrimarySearch_ki.jsp?energyterm=kJ/mole&tag=r21&monomerid=50142335&enzyme=Tyrosine-protein+phosphatase+non-receptor+type+1&column=ki&startPg=0&Increment=50&submit
=Search

> <PubChem CID of Ligand>
44265877

> <PubChem SID of Ligand>
104031726

> <ChEMBL ID of Ligand>
CHEMBL274435

> <ZINC ID of Ligand>
ZINC25992377

> <Number of Protein Chains in Target (bigger than 1 implies a multichain complex)>
1

> <BindingDB Target Chain Sequence>
MEMEKEFEQIDKSGSWAAIYQDIRHEASDFPCRVAKLPKNKNRNRYRDVSPFDHSRIKLHQEDNDYINASLIKMEEAQRSYILTQGPLPNTCGHFWEMVWEQKSRGVVMLNRVMEKGSLKCAQYWPQKEEKEMIFEDTNLKLTLISEDIKSYYTVRQLELENLTTQETREILHFHYTTWPDFGVPESPASFLNFLFKVRE
SGSLSPEHGPVVVHCSAGIGRSGTFCLADTCLLLMDKRKDPSSVDIKKVLLEMRKFRMGLIQTADQLRFSYLAVIEGAKFIMGDSSVQDQWKELSHEDLEPPPEHIPPPPRPPKRILEPHNGKCREFFPNHQWVKEETQEDKDCPIKEEKGSPLNAAPYGIESMSQDTEVRSRVVGGSLRGAQAASPAKGEPSLPEKDED
HALSYWKPFLVNMCVATVLTAGAYLCYRFLFNSNT

> <PDB ID(s) of Target Chain>
1BZJ,1G7G,1GFY,1JF7,1KAK,1KAV,1LQF,1NL9,1NNY,1NO6,1NZ7,1OEM,1OEO,1OES,1OET,1OEU,1OEV,1ONY,1ONZ,1PH0,1PXH,1PYN,1Q1M,1Q6J,1Q6M,1Q6N,1Q6P,1Q6S,1Q6T,1QXK,1SUG,1T48,1T49,1T4J,1WAX,1XBO,2AZR,2B07,2BGD,2BGE,
2CM2,2CM3,2CM7,2CM8,2CMA,2CMB,2CMC,2CNE,2CNF,2CNG,2CNH,2CNI,2F6T,2F6V,2F6W,2F6Y,2F6Z,2F70,2F71,2FJN,2H4G,2H4K,2HB1,2HNP,2HNQ,2QBP,2QBQ,2QBR,2QBS,2VEU,2VEV,2VEW,2VEX,2VEY,2ZMM,2ZN7,3A5J,3CWE,3D9C,3EAX,
3EB1,3EU0,3I7Z,3I80,3SME,4BJO,4I8N,4QBW,4Y14,5K9V,5K9W,5KA0,5KA1,5T19,6B90,6NTP,6W30,7KEY,7KLX,7LFO,7MN9,7MNA,8DU7,8G65,8G67,8G68,8G69,8G6A,8SKL

> <UniProt (SwissProt) Recommended Name of Target Chain>
Tyrosine-protein phosphatase non-receptor type 1

> <UniProt (SwissProt) Entry Name of Target Chain>
PTN1_HUMAN

> <UniProt (SwissProt) Primary ID of Target Chain>
P18031

> <UniProt (SwissProt) Secondary ID(s) of Target Chain>
Q5TGD8 Q9BQV9 Q9NQQ4

$$$$
Molecule
  SciTegic10242319433D

 62 66  0  0  0  0            999 V2000
    9.4102  -15.4200   -0.3924 C   0  0
    9.4659  -16.6844   -0.8241 C   0  0
   10.6992  -17.4987   -0.6115 C   0  0
   11.7676  -16.9584   -0.0166 C   0  0
   11.6881  -15.5642    0.4414 C   0  0
   10.5720  -14.8822    0.2665 C   0  0
    8.1296  -14.5505   -0.6638 C   0  0
   13.0364  -17.7690    0.2200 C   0  0  1  0  0  0
    7.9057  -13.1210    0.1071 C   0  0  2  0  0  0
    6.5708  -12.4532   -0.2316 N   0  0
    9.0384  -12.0610   -0.0994 C   0  0
   10.2778  -12.3553   -0.2319 N   0  0
    8.8626  -10.6293   -0.0494 N   0  0
   10.1609  -10.1347   -0.1562 C   0  0
   11.0087  -11.2082   -0.2715 C   0  0
   12.3288  -11.0951   -0.3632 C   0  0
   12.8896   -9.7349   -0.3572 C   0  0
   12.0691   -8.6783   -0.2539 C   0  0
   10.5972   -8.8818   -0.1400 C   0  0
   12.9284  -19.5204    0.0373 S   0  0
   14.5886  -19.7367    0.1745 N   0  5
   15.2031  -18.5505   -0.3166 C   0  0
   14.2073  -17.4576   -0.7515 C   0  0
   12.4708  -19.9047   -1.3568 O   0  0
   12.0824  -20.1721    1.1138 O   0  0
   16.4289  -18.4067   -0.3890 O   0  0
    5.1153  -13.0391    0.6706 S   0  0
    3.5536  -13.8319    0.2530 C   0  0
    5.5580  -14.4458    0.3502 O   0  0
    4.4275  -11.9935   -0.1891 O   0  0
    2.4165  -13.1335    0.2955 C   0  0
    1.1238  -13.7843    0.0081 C   0  0
    1.0907  -15.0889   -0.2881 C   0  0
    2.3423  -15.8534   -0.3365 C   0  0
    3.5079  -15.2606   -0.0790 C   0  0
   12.8447  -14.8626    1.1134 C   0  0
   -0.1433  -12.9566    0.0765 C   0  0
   -0.7700  -12.9780   -1.1543 F   0  0
    0.1506  -11.6600    0.4395 F   0  0
   -1.0203  -13.5216    0.9832 F   0  0
   -0.5562  -15.9893   -0.6488 Br  0  0
    8.6075  -17.1224   -1.3332 H   0  0
   10.7286  -18.5369   -0.9423 H   0  0
   10.5273  -13.8591    0.6401 H   0  0
    7.2717  -15.1751   -0.4151 H   0  0
    8.1233  -14.3318   -1.7316 H   0  0
   13.3803  -17.5607    1.2332 H   0  0
    7.8797  -13.3441    1.1737 H   0  0
    6.3881  -12.6051   -1.2748 H   0  0
    7.9507  -10.0779    0.0470 H   0  0
   12.9700  -11.9732   -0.4397 H   0  0
   13.9665   -9.5862   -0.4362 H   0  0
   12.4801   -7.6688   -0.2533 H   0  0
    9.9108   -8.0401   -0.0475 H   0  0
   14.6095  -16.4568   -0.5944 H   0  0
   13.9104  -17.5710   -1.7941 H   0  0
    2.4433  -12.0727    0.5449 H   0  0
    2.3186  -16.9144   -0.5851 H   0  0
    4.4309  -15.8393   -0.1150 H   0  0
   12.5554  -13.8419    1.3634 H   0  0
   13.6999  -14.8421    0.4378 H   0  0
   13.1146  -15.3967    2.0244 H   0  0
  8 20  1  0
  9  7  1  0
  1  2  2  0
  9 10  1  0
  4  5  1  0
 20 21  1  0
 21 22  1  0
 22 23  1  0
  8 23  1  0
  9 11  1  0
 20 24  2  0
 11 12  2  0
 20 25  2  0
 22 26  2  0
  5  6  2  0
 10 27  1  0
 12 15  1  0
 27 28  1  0
 14 13  1  0
 27 29  2  0
 13 11  1  0
 27 30  2  0
  6  1  1  0
 28 31  2  0
  2  3  1  0
 31 32  1  0
 14 15  1  0
 32 33  2  0
  1  7  1  0
 33 34  1  0
 15 16  2  0
 34 35  2  0
 35 28  1  0
  5 36  1  0
 16 17  1  0
 32 37  1  0
  8  4  1  0
 37 38  1  0
 17 18  2  0
 37 39  1  0
  3  4  2  0
 37 40  1  0
 18 19  1  0
 33 41  1  0
 19 14  2  0
  2 42  1  0
  3 43  1  0
  6 44  1  0
  7 45  1  0
  7 46  1  0
  8 47  1  0
  9 48  1  0
 10 49  1  0
 13 50  1  0
 16 51  1  0
 17 52  1  0
 18 53  1  0
 19 54  1  0
 23 55  1  0
 23 56  1  0
 31 57  1  0
 34 58  1  0
 35 59  1  0
 36 60  1  0
 36 61  1  0
 36 62  1  0
M  CHG  1  21  -1
M  END
> <Name>
Molecule

> <Clean Energy>
184.238

> <From>
www.bindingDB.org

> <BindingDB Reactant_set_id>
50350934

> <Ligand InChI>
InChI=1S/C26H22BrF3N4O5S2/c1-14-10-15(6-8-17(14)23-13-24(35)34-41(23,38)39)11-22(25-31-20-4-2-3-5-21(20)32-25)33-40(36,37)16-7-9-19(27)18(12-16)26(28,29)30/h2-10,12,22-23,33H,11,13H2,1H3,(H2,31,32,34,
35)/p-1/t22-,23-/m0/s1

> <Ligand InChI Key>
SORDFNICGVEBFX-GOTSBHOMSA-M

> <BindingDB MonomerID>
50189659

> <BindingDB Ligand Name>
CHEMBL378614::N-((1S)-1-(1H-benzimidazol-2-yl)-2-{4-[(5S)-1,1-dioxodo-3-oxoisothiazolidin-5-yl]-3-methylphenyl}ethyl0benzenesulfonamide

> <Target Name>
Tyrosine-protein phosphatase non-receptor type 1

> <Target Source Organism According to Curator or DataSource>
Homo sapiens

> <IC50 (nM)>
16

> <Curation/DataSource>
ChEMBL

> <Article DOI>
10.1021/jm0600904

> <BindingDB Entry DOI>
10.7270/Q2JQ10M8

> <PMID>
16789735

> <Authors>
Combs, AP; Zhu, W; Crawley, ML; Glass, B; Polam, P; Sparks, RB; Modi, D; Takvorian, A; McLaughlin, E; Yue, EW; Wasserman, Z; Bower, M; Wei, M; Rupar, M; Ala, PJ; Reid, BM; Ellis, D; Gonneville, L; Emm
, T; Taylor, N; Yeleswaram, S; Li, Y; Wynn, R; Burn, TC; Hollis, G; Liu, PC; Metcalf, B

> <Institution>
Incyte Corporation

> <Link to Ligand in BindingDB>
http://www.bindingdb.org/bind/chemsearch/marvin/MolStructure.jsp?monomerid=50189659

> <Link to Ligand-Target Pair in BindingDB>
http://www.bindingdb.org/jsp/dbsearch/PrimarySearch_ki.jsp?energyterm=kJ/mole&tag=pol&polymerid=2622&target=Tyrosine-protein+phosphatase+non-receptor+type+1&column=ki&startPg=0&Increment=50&submit=Sea
rch
http://www.bindingdb.org/jsp/dbsearch/PrimarySearch_ki.jsp?energyterm=kJ/mole&tag=r21&monomerid=50189659&enzyme=Tyrosine-protein+phosphatase+non-receptor+type+1&column=ki&startPg=0&Increment=50&submit
=Search

> <PubChem CID of Ligand>
91936147

> <PubChem SID of Ligand>
104073180

> <ChEMBL ID of Ligand>
CHEMBL378614

> <ZINC ID of Ligand>
ZINC36748831

> <Number of Protein Chains in Target (bigger than 1 implies a multichain complex)>
1

> <BindingDB Target Chain Sequence>
MEMEKEFEQIDKSGSWAAIYQDIRHEASDFPCRVAKLPKNKNRNRYRDVSPFDHSRIKLHQEDNDYINASLIKMEEAQRSYILTQGPLPNTCGHFWEMVWEQKSRGVVMLNRVMEKGSLKCAQYWPQKEEKEMIFEDTNLKLTLISEDIKSYYTVRQLELENLTTQETREILHFHYTTWPDFGVPESPASFLNFLFKVRE
SGSLSPEHGPVVVHCSAGIGRSGTFCLADTCLLLMDKRKDPSSVDIKKVLLEMRKFRMGLIQTADQLRFSYLAVIEGAKFIMGDSSVQDQWKELSHEDLEPPPEHIPPPPRPPKRILEPHNGKCREFFPNHQWVKEETQEDKDCPIKEEKGSPLNAAPYGIESMSQDTEVRSRVVGGSLRGAQAASPAKGEPSLPEKDED
HALSYWKPFLVNMCVATVLTAGAYLCYRFLFNSNT

> <PDB ID(s) of Target Chain>
1BZJ,1G7G,1GFY,1JF7,1KAK,1KAV,1LQF,1NL9,1NNY,1NO6,1NZ7,1OEM,1OEO,1OES,1OET,1OEU,1OEV,1ONY,1ONZ,1PH0,1PXH,1PYN,1Q1M,1Q6J,1Q6M,1Q6N,1Q6P,1Q6S,1Q6T,1QXK,1SUG,1T48,1T49,1T4J,1WAX,1XBO,2AZR,2B07,2BGD,2BGE,
2CM2,2CM3,2CM7,2CM8,2CMA,2CMB,2CMC,2CNE,2CNF,2CNG,2CNH,2CNI,2F6T,2F6V,2F6W,2F6Y,2F6Z,2F70,2F71,2FJN,2H4G,2H4K,2HB1,2HNP,2HNQ,2QBP,2QBQ,2QBR,2QBS,2VEU,2VEV,2VEW,2VEX,2VEY,2ZMM,2ZN7,3A5J,3CWE,3D9C,3EAX,
3EB1,3EU0,3I7Z,3I80,3SME,4BJO,4I8N,4QBW,4Y14,5K9V,5K9W,5KA0,5KA1,5T19,6B90,6NTP,6W30,7KEY,7KLX,7LFO,7MN9,7MNA,8DU7,8G65,8G67,8G68,8G69,8G6A,8SKL

> <UniProt (SwissProt) Recommended Name of Target Chain>
Tyrosine-protein phosphatase non-receptor type 1

> <UniProt (SwissProt) Entry Name of Target Chain>
PTN1_HUMAN

> <UniProt (SwissProt) Primary ID of Target Chain>
P18031

> <UniProt (SwissProt) Secondary ID(s) of Target Chain>
Q5TGD8 Q9BQV9 Q9NQQ4

$$$$
2
  SciTegic10242319433D

 69 73  0  0  0  0            999 V2000
    3.4088    1.7813   -0.1596 C   0  0
    4.8712    1.9351   -0.0514 C   0  0
    5.4133    3.1582   -0.0693 C   0  0
    4.5375    4.3394   -0.2010 C   0  0
    2.6636    2.8796   -0.2824 C   0  0
    3.2304    4.1260   -0.3020 C   0  0
    2.2140    5.0683   -0.4285 N   0  0
    1.1242    4.4901   -0.4804 N   0  0
    1.2578    3.1114   -0.4005 N   0  0
    0.4433    0.9051    0.5273 C   0  0
    0.1502    0.6318    1.7969 C   0  0
    0.4590   -0.7034    2.3367 C   0  0
    1.0062   -1.6452    1.5643 C   0  0
    1.3274   -1.3634    0.1714 C   0  0
    1.0674   -0.1615   -0.3279 C   0  0
   -0.8210    1.8342   -1.5363 C   0  0
   -2.1222    0.8223   -1.2916 C   0  0
   -3.5165    1.1176   -1.7350 C   0  0
   -4.5269    0.3089   -1.3364 C   0  0
   -4.2394   -0.8787   -0.4735 C   0  0
   -2.9963   -1.1458   -0.1627 C   0  0
   -1.9639   -0.2930   -0.5846 C   0  0
   -5.2812   -1.7424    0.2104 C   0  0
   -6.1579   -0.9210    0.8855 F   0  0
   -4.6316   -2.5852    1.0984 F   0  0
   -6.1759   -2.6563   -0.8139 P   0  0
   -5.3479   -3.5063   -1.5173 O   0  0
   -6.9581   -1.7460   -1.7829 O   0  0
   -7.1722   -3.4923    0.0372 O   0  0
    0.0362    2.2372   -0.1197 C   0  0
   -0.7911    3.3038    0.8173 C   0  0
   -2.3123    3.3099    0.7669 C   0  0
   -2.8505    4.1959   -0.0758 C   0  0
   -4.2716    4.2272   -0.3319 C   0  0
   -4.5132    2.4405    1.3083 C   0  0
   -3.1892    2.3991    1.5267 C   0  0
   -5.0782    3.3891    0.3042 C   0  0
   -7.5474    4.3983    0.4727 P   0  0
   -7.1127    5.6774    0.1925 O   0  0
   -8.9418    4.1768   -0.1794 O   0  0
   -7.6544    4.1941    1.9991 O   0  0
   -6.5135    3.2882   -0.1748 C   0  0
   -6.5072    3.5268   -1.5364 F   0  0
   -6.9985    2.0322    0.1071 F   0  0
    2.9484    0.7935   -0.1396 H   0  0
    5.5083    1.0557    0.0429 H   0  0
    6.4931    3.2816    0.0126 H   0  0
    4.9483    5.3490   -0.2148 H   0  0
   -0.3134    1.3882    2.4303 H   0  0
    0.2378   -0.9257    3.3806 H   0  0
    1.2140   -2.6317    1.9787 H   0  0
    1.7776   -2.1332   -0.4553 H   0  0
    1.3090    0.0541   -1.3687 H   0  0
   -1.1871    2.7567   -1.9868 H   0  0
   -0.1318    1.3426   -2.2229 H   0  0
   -3.7197    1.9768   -2.3741 H   0  0
   -5.5502    0.5235   -1.6445 H   0  0
   -2.7619   -2.0330    0.4255 H   0  0
   -0.9458   -0.5684   -0.3091 H   0  0
   -7.5950   -1.1161   -1.2351 H   0  0
   -6.6375   -4.1072    0.6993 H   0  0
   -0.5074    3.1065    1.8511 H   0  0
   -0.4589    4.3022    0.5330 H   0  0
   -2.2024    4.9116   -0.5816 H   0  0
   -4.6809    4.9397   -1.0481 H   0  0
   -5.1772    1.7798    1.8657 H   0  0
   -2.7692    1.7038    2.2535 H   0  0
   -8.8676    4.3080   -1.2185 H   0  0
   -8.0156    3.2287    2.1992 H   0  0
  5  1  2  0
  1  2  1  0
  2  3  2  0
  3  4  1  0
  4  6  2  0
  9  5  1  0
  5  6  1  0
  7  6  1  0
  7  8  2  0
  8  9  1  0
  9 30  1  0
 30 16  1  0
 30 10  1  0
 10 11  2  0
 10 15  1  0
 11 12  1  0
 12 13  2  0
 13 14  1  0
 14 15  2  0
 16 17  1  0
 22 17  2  0
 18 17  1  0
 18 19  2  0
 19 20  1  0
 20 21  2  0
 21 22  1  0
 20 23  1  0
 23 26  1  0
 23 25  1  0
 23 24  1  0
 26 27  2  0
 26 28  1  0
 26 29  1  0
 30 31  1  0
 31 32  1  0
 32 33  2  0
 32 36  1  0
 33 34  1  0
 34 37  2  0
 37 35  1  0
 35 36  2  0
 37 42  1  0
 42 38  1  0
 38 40  1  0
 38 39  2  0
 38 41  1  0
 42 43  1  0
 42 44  1  0
  1 45  1  0
  2 46  1  0
  3 47  1  0
  4 48  1  0
 11 49  1  0
 12 50  1  0
 13 51  1  0
 14 52  1  0
 15 53  1  0
 16 54  1  0
 16 55  1  0
 18 56  1  0
 19 57  1  0
 21 58  1  0
 22 59  1  0
 28 60  1  0
 29 61  1  0
 31 62  1  0
 31 63  1  0
 33 64  1  0
 34 65  1  0
 35 66  1  0
 36 67  1  0
 40 68  1  0
 41 69  1  0
M  END
> <Name>
2

> <Clean Energy>
126.8

> <From>
www.bindingDB.org

> <BindingDB Reactant_set_id>
50261773

> <Ligand InChI>
InChI=1S/C29H25F4N3O6P2/c30-28(31,43(37,38)39)23-14-10-20(11-15-23)18-27(22-6-2-1-3-7-22,36-26-9-5-4-8-25(26)34-35-36)19-21-12-16-24(17-13-21)29(32,33)44(40,41)42/h1-17H,18-19H2,(H2,37,38,39)(H2,40,41
,42)

> <Ligand InChI Key>
WNNXXNZHCLRWMD-UHFFFAOYSA-N

> <BindingDB MonomerID>
13595

> <BindingDB Ligand Name>
({4-[2-(1H-1,2,3-benzotriazol-1-yl)-3-{4-[difluoro(phosphono)methyl]phenyl}-2-phenylpropyl]phenyl}difluoromethyl)phosphonic acid::Aryldifluoromethyl-Phosphonic Acid Inhibitor 2::CHEMBL276647

> <Target Name>
Tyrosine-protein phosphatase non-receptor type 1

> <Target Source Organism According to Curator or DataSource>
Homo sapiens

> <IC50 (nM)>
16

> <Curation/DataSource>
ChEMBL

> <Article DOI>
10.1016/j.bmcl.2003.11.076

> <BindingDB Entry DOI>
10.7270/Q24M9404

> <PMID>
15013020

> <Authors>
Lau, CK; Bayly, CI; Gauthier, JY; Li, CS; Therien, M; Asante-Appiah, E; Cromlish, W; Boie, Y; Forghani, F; Desmarais, S; Wang, Q; Skorey, K; Waddleton, D; Payette, P; Ramachandran, C; Kennedy, BP; Sca
pin, G

> <Institution>
Merck Frosst Centre for Therapeutic Research

> <Link to Ligand in BindingDB>
http://www.bindingdb.org/bind/chemsearch/marvin/MolStructure.jsp?monomerid=13595

> <Link to Ligand-Target Pair in BindingDB>
http://www.bindingdb.org/jsp/dbsearch/PrimarySearch_ki.jsp?energyterm=kJ/mole&tag=pol&polymerid=2622&target=Tyrosine-protein+phosphatase+non-receptor+type+1&column=ki&startPg=0&Increment=50&submit=Sea
rch
http://www.bindingdb.org/jsp/dbsearch/PrimarySearch_ki.jsp?energyterm=kJ/mole&tag=r21&monomerid=13595&enzyme=Tyrosine-protein+phosphatase+non-receptor+type+1&column=ki&startPg=0&Increment=50&submit=Se
arch

> <Ligand HET ID in PDB>
335

> <PDB ID(s) for Ligand-Target Complex>
1Q6J

> <PubChem CID of Ligand>
448021

> <PubChem SID of Ligand>
46513990

> <ChEMBL ID of Ligand>
CHEMBL276647

> <ZINC ID of Ligand>
ZINC24787743

> <Number of Protein Chains in Target (bigger than 1 implies a multichain complex)>
1

> <BindingDB Target Chain Sequence>
MEMEKEFEQIDKSGSWAAIYQDIRHEASDFPCRVAKLPKNKNRNRYRDVSPFDHSRIKLHQEDNDYINASLIKMEEAQRSYILTQGPLPNTCGHFWEMVWEQKSRGVVMLNRVMEKGSLKCAQYWPQKEEKEMIFEDTNLKLTLISEDIKSYYTVRQLELENLTTQETREILHFHYTTWPDFGVPESPASFLNFLFKVRE
SGSLSPEHGPVVVHCSAGIGRSGTFCLADTCLLLMDKRKDPSSVDIKKVLLEMRKFRMGLIQTADQLRFSYLAVIEGAKFIMGDSSVQDQWKELSHEDLEPPPEHIPPPPRPPKRILEPHNGKCREFFPNHQWVKEETQEDKDCPIKEEKGSPLNAAPYGIESMSQDTEVRSRVVGGSLRGAQAASPAKGEPSLPEKDED
HALSYWKPFLVNMCVATVLTAGAYLCYRFLFNSNT

> <PDB ID(s) of Target Chain>
1BZJ,1G7G,1GFY,1JF7,1KAK,1KAV,1LQF,1NL9,1NNY,1NO6,1NZ7,1OEM,1OEO,1OES,1OET,1OEU,1OEV,1ONY,1ONZ,1PH0,1PXH,1PYN,1Q1M,1Q6J,1Q6M,1Q6N,1Q6P,1Q6S,1Q6T,1QXK,1SUG,1T48,1T49,1T4J,1WAX,1XBO,2AZR,2B07,2BGD,2BGE,
2CM2,2CM3,2CM7,2CM8,2CMA,2CMB,2CMC,2CNE,2CNF,2CNG,2CNH,2CNI,2F6T,2F6V,2F6W,2F6Y,2F6Z,2F70,2F71,2FJN,2H4G,2H4K,2HB1,2HNP,2HNQ,2QBP,2QBQ,2QBR,2QBS,2VEU,2VEV,2VEW,2VEX,2VEY,2ZMM,2ZN7,3A5J,3CWE,3D9C,3EAX,
3EB1,3EU0,3I7Z,3I80,3SME,4BJO,4I8N,4QBW,4Y14,5K9V,5K9W,5KA0,5KA1,5T19,6B90,6NTP,6W30,7KEY,7KLX,7LFO,7MN9,7MNA,8DU7,8G65,8G67,8G68,8G69,8G6A,8SKL

> <UniProt (SwissProt) Recommended Name of Target Chain>
Tyrosine-protein phosphatase non-receptor type 1

> <UniProt (SwissProt) Entry Name of Target Chain>
PTN1_HUMAN

> <UniProt (SwissProt) Primary ID of Target Chain>
P18031

> <UniProt (SwissProt) Secondary ID(s) of Target Chain>
Q5TGD8 Q9BQV9 Q9NQQ4

$$$$
Molecule
  SciTegic10242319433D

 69 73  0  0  0  0            999 V2000
  -10.1569   -5.7649   -1.2468 O   0  0
   -9.9401   -6.6520    0.0049 P   0  0
  -10.0333   -5.9074    1.1639 O   0  0
   -8.4140   -8.1974   -1.1964 F   0  0
   -8.4587   -7.4068   -0.0665 C   0  0
   -8.3488   -8.2764    0.9989 F   0  0
   -3.3157   -9.7455   -0.8058 O   0  0
   -2.1286  -10.0111    0.0985 S   0  0
   -2.5316   -9.7295    1.5331 O   0  0
   -0.7658   -8.9129   -0.3145 N   0  0
    0.5226   -9.4755    0.2766 C   0  0
   -0.9986   -7.5073    0.2781 C   0  0
   -1.9420  -11.7805   -0.0156 C   0  0
   -3.0739  -12.4782    0.0264 C   0  0
   -3.0623  -13.9220   -0.0097 C   0  0
   -1.9076  -14.5792   -0.0749 C   0  0
   -0.6436  -13.8262   -0.1215 C   0  0
   -0.6583  -12.4917   -0.0951 C   0  0
   -2.3083   -6.7016    0.1026 C   0  0
   -2.2402   -5.3701    0.1111 C   0  0
   -3.4708   -4.5665    0.0391 C   0  0
   -3.6235   -7.3193    0.0457 C   0  0
    1.9065   -8.7531    0.1076 C   0  0
    3.0021   -9.4610    0.3909 C   0  0
    4.3378   -8.8526    0.3134 C   0  0
    4.4723   -7.5722   -0.0245 C   0  0
    3.2884   -6.7784   -0.3439 C   0  0
    2.0769   -7.3323   -0.2935 C   0  0
    5.8022   -6.9542   -0.0609 C   0  0
    6.9276   -7.6312    0.1719 C   0  0
    8.0997   -6.4770    0.0280 S   0  0
    7.1869   -5.1827   -0.3052 N   0  0
    6.0102   -5.5294   -0.3335 N   0  0
   -1.8953  -15.9821   -0.0936 O   0  0
   -3.2379  -16.5009   -0.0339 C   0  0
   -3.2028  -17.9948   -0.0116 C   0  0
   -4.3913  -18.7176    0.0276 O   0  0
   -2.1177  -18.5852   -0.0229 O   0  0
   -4.7317   -6.5953   -0.0065 C   0  0
   -4.6574   -5.1722   -0.0100 C   0  0
   -5.8819   -4.4051   -0.0375 C   0  0
   -7.0768   -5.0041   -0.0558 C   0  0
   -7.1642   -6.5437   -0.0598 C   0  0
   -6.0301   -7.2461   -0.0381 C   0  0
   -8.5789   -3.8360   -0.0592 Br  0  0
  -11.0458   -7.7369    0.0240 O   0  0
  -11.1103   -5.3269   -1.2051 H   0  0
    0.6446  -10.4702   -0.1521 H   0  0
    0.3529   -9.5601    1.3500 H   0  0
   -0.2078   -6.8790   -0.1316 H   0  0
   -0.8586   -7.6132    1.3539 H   0  0
   -4.0261  -11.9514    0.0891 H   0  0
   -4.0016  -14.4743    0.0167 H   0  0
    0.3056  -14.3590   -0.1775 H   0  0
    0.2766  -11.9325   -0.1323 H   0  0
   -1.2707   -4.8756    0.1715 H   0  0
   -3.4123   -3.4782    0.0259 H   0  0
   -3.6995   -8.4066    0.0460 H   0  0
    2.9046  -10.5063    0.6841 H   0  0
    5.2212   -9.4520    0.5335 H   0  0
    3.3959   -5.7306   -0.6241 H   0  0
    1.2010   -6.7361   -0.5495 H   0  0
    7.0451   -8.6902    0.4016 H   0  0
   -3.7264  -16.1370    0.8699 H   0  0
   -3.7946  -16.1652   -0.9088 H   0  0
   -4.9275  -18.4636    0.8939 H   0  0
   -5.8300   -3.3163   -0.0433 H   0  0
   -6.0789   -8.3350   -0.0441 H   0  0
  -11.9883   -7.2760    0.0666 H   0  0
 11 23  1  0
  8 13  1  0
 23 24  2  0
  5  4  1  0
 24 25  1  0
 13 14  2  0
 25 26  2  0
  6  5  1  0
 26 27  1  0
 14 15  1  0
 27 28  2  0
 28 23  1  0
 29 30  2  0
 15 16  2  0
  2  1  1  0
 16 17  1  0
  3  2  2  0
 30 31  1  0
 31 32  1  0
 32 33  2  0
 33 29  1  0
 26 29  1  0
 17 18  2  0
 16 34  1  0
 18 13  1  0
 34 35  1  0
 10 11  1  0
 35 36  1  0
 12 19  1  0
 36 37  1  0
 10  8  1  0
 36 38  2  0
 19 20  2  0
  8  7  2  0
 39 40  1  0
 20 21  1  0
 40 41  1  0
 21 40  2  0
 41 42  2  0
 10 12  1  0
 42 43  1  0
 39 22  2  0
 43 44  2  0
 44 39  1  0
 22 19  1  0
 42 45  1  0
 43  5  1  0
  5  2  1  0
  9  8  2  0
  2 46  1  0
  1 47  1  0
 11 48  1  0
 11 49  1  0
 12 50  1  0
 12 51  1  0
 14 52  1  0
 15 53  1  0
 17 54  1  0
 18 55  1  0
 20 56  1  0
 21 57  1  0
 22 58  1  0
 24 59  1  0
 25 60  1  0
 27 61  1  0
 28 62  1  0
 30 63  1  0
 35 64  1  0
 35 65  1  0
 37 66  1  0
 41 67  1  0
 44 68  1  0
 46 69  1  0
M  END
> <Name>
Molecule

> <Clean Energy>
66.4099

> <From>
www.bindingDB.org

> <BindingDB Reactant_set_id>
50713195

> <Ligand InChI>
InChI=1S/C29H23BrF2N3O8PS2/c30-26-13-21-6-3-19(11-22(21)12-25(26)29(31,32)44(38,39)40)15-35(14-18-1-4-20(5-2-18)27-17-45-34-33-27)46(41,42)24-9-7-23(8-10-24)43-16-28(36)37/h1-13,17H,14-16H2,(H,36,37)(
H2,38,39,40)

> <Ligand InChI Key>
XGUNPEZMRFLJPR-UHFFFAOYSA-N

> <BindingDB MonomerID>
50362191

> <BindingDB Ligand Name>
CHEMBL1938824

> <Target Name>
Tyrosine-protein phosphatase non-receptor type 1

> <Target Source Organism According to Curator or DataSource>
Homo sapiens

> <IC50 (nM)>
17

> <Curation/DataSource>
ChEMBL

> <Article DOI>
10.1016/j.bmcl.2011.11.122

> <BindingDB Entry DOI>
10.7270/Q2ZS2X05

> <PMID>
22189136

> <Authors>
Patel, D; Jain, M; Shah, SR; Bahekar, R; Jadav, P; Joharapurkar, A; Dhanesha, N; Shaikh, M; Sairam, KV; Kapadnis, P

> <Institution>
M.S. University of Baroda

> <Link to Ligand in BindingDB>
http://www.bindingdb.org/bind/chemsearch/marvin/MolStructure.jsp?monomerid=50362191

> <Link to Ligand-Target Pair in BindingDB>
http://www.bindingdb.org/jsp/dbsearch/PrimarySearch_ki.jsp?energyterm=kJ/mole&tag=pol&polymerid=2622&target=Tyrosine-protein+phosphatase+non-receptor+type+1&column=ki&startPg=0&Increment=50&submit=Sea
rch
http://www.bindingdb.org/jsp/dbsearch/PrimarySearch_ki.jsp?energyterm=kJ/mole&tag=r21&monomerid=50362191&enzyme=Tyrosine-protein+phosphatase+non-receptor+type+1&column=ki&startPg=0&Increment=50&submit
=Search

> <PubChem CID of Ligand>
57390657

> <PubChem SID of Ligand>
136966253

> <ChEMBL ID of Ligand>
CHEMBL1938824

> <ZINC ID of Ligand>
ZINC95549471

> <Number of Protein Chains in Target (bigger than 1 implies a multichain complex)>
1

> <BindingDB Target Chain Sequence>
MEMEKEFEQIDKSGSWAAIYQDIRHEASDFPCRVAKLPKNKNRNRYRDVSPFDHSRIKLHQEDNDYINASLIKMEEAQRSYILTQGPLPNTCGHFWEMVWEQKSRGVVMLNRVMEKGSLKCAQYWPQKEEKEMIFEDTNLKLTLISEDIKSYYTVRQLELENLTTQETREILHFHYTTWPDFGVPESPASFLNFLFKVRE
SGSLSPEHGPVVVHCSAGIGRSGTFCLADTCLLLMDKRKDPSSVDIKKVLLEMRKFRMGLIQTADQLRFSYLAVIEGAKFIMGDSSVQDQWKELSHEDLEPPPEHIPPPPRPPKRILEPHNGKCREFFPNHQWVKEETQEDKDCPIKEEKGSPLNAAPYGIESMSQDTEVRSRVVGGSLRGAQAASPAKGEPSLPEKDED
HALSYWKPFLVNMCVATVLTAGAYLCYRFLFNSNT

> <PDB ID(s) of Target Chain>
1BZJ,1G7G,1GFY,1JF7,1KAK,1KAV,1LQF,1NL9,1NNY,1NO6,1NZ7,1OEM,1OEO,1OES,1OET,1OEU,1OEV,1ONY,1ONZ,1PH0,1PXH,1PYN,1Q1M,1Q6J,1Q6M,1Q6N,1Q6P,1Q6S,1Q6T,1QXK,1SUG,1T48,1T49,1T4J,1WAX,1XBO,2AZR,2B07,2BGD,2BGE,
2CM2,2CM3,2CM7,2CM8,2CMA,2CMB,2CMC,2CNE,2CNF,2CNG,2CNH,2CNI,2F6T,2F6V,2F6W,2F6Y,2F6Z,2F70,2F71,2FJN,2H4G,2H4K,2HB1,2HNP,2HNQ,2QBP,2QBQ,2QBR,2QBS,2VEU,2VEV,2VEW,2VEX,2VEY,2ZMM,2ZN7,3A5J,3CWE,3D9C,3EAX,
3EB1,3EU0,3I7Z,3I80,3SME,4BJO,4I8N,4QBW,4Y14,5K9V,5K9W,5KA0,5KA1,5T19,6B90,6NTP,6W30,7KEY,7KLX,7LFO,7MN9,7MNA,8DU7,8G65,8G67,8G68,8G69,8G6A,8SKL

> <UniProt (SwissProt) Recommended Name of Target Chain>
Tyrosine-protein phosphatase non-receptor type 1

> <UniProt (SwissProt) Entry Name of Target Chain>
PTN1_HUMAN

> <UniProt (SwissProt) Primary ID of Target Chain>
P18031

> <UniProt (SwissProt) Secondary ID(s) of Target Chain>
Q5TGD8 Q9BQV9 Q9NQQ4

$$$$
Molecule
  SciTegic10242319433D

 85 87  0  0  0  0            999 V2000
   10.3138  -14.7547   -0.5062 C   0  0
   10.3701  -16.1358   -0.8882 C   0  0
   11.5222  -16.7968   -0.8408 C   0  0
   12.7833  -16.2001   -0.3321 C   0  0
   12.7093  -14.8479    0.0044 C   0  0
   11.4120  -14.1583   -0.0769 C   0  0
   14.0551  -17.0831   -0.3340 N   0  0
   14.0803  -18.6607   -0.1028 C   0  0
   15.3476  -16.4553   -0.7064 C   0  0
   16.7008  -16.8533   -0.1632 C   0  0
   15.3303  -15.3073   -1.1817 O   0  0
   13.7833  -13.9494    0.5796 C   0  0
   13.5170  -12.7411    0.6956 O   0  0
   15.0178  -14.3829    1.0152 O   0  0
   13.1858  -19.4662    0.5443 C   0  0
   13.4717  -20.9295    0.6567 C   0  0
   14.5261  -21.5090    0.0845 C   0  0
   15.4226  -20.7012   -0.6740 C   0  0
   15.2069  -19.3934   -0.7791 C   0  0
   11.9602  -19.0066    1.2903 C   0  0
   10.8667  -20.1076    1.1669 C   0  0
   16.8412  -17.8663    0.7953 O   0  0
   17.6881  -16.1807   -0.4560 O   0  0
   14.7769  -23.0008    0.3662 C   0  0
   16.0889  -23.7222   -0.1803 C   0  0  2  0  0  0
   15.9869  -25.0860    0.3640 N   0  0
   16.6259  -26.1954   -0.0479 C   0  0
   16.3930  -27.2542    0.5477 O   0  0
   17.6011  -26.2132   -1.1973 C   0  0
   17.4211  -23.0797    0.3093 C   0  0
   18.6077  -23.5306   -0.1418 N   0  0
   17.3951  -22.1254    1.0932 O   0  0
   19.8684  -22.9033    0.2594 C   0  0
   21.0972  -23.8396   -0.0294 C   0  0
   22.4459  -23.0713    0.2141 C   0  0
   23.6872  -24.0080    0.0133 C   0  0
   24.9328  -23.2379    0.0655 O   0  0
   26.0961  -24.0681   -0.0064 C   0  0
   25.9409  -25.3905   -0.0570 C   0  0
   27.0842  -26.2691   -0.1233 C   0  0
   28.3076  -25.7612   -0.1392 C   0  0
   28.5377  -24.3152   -0.0922 C   0  0
   27.4877  -23.4533   -0.0225 C   0  0
   27.5154  -21.8768    0.0257 C   0  0
   28.6129  -20.9023    0.1613 O   0  0
   26.4067  -21.3409   -0.0530 O   0  0
   29.9739  -21.2706    0.3281 C   0  0
   29.8476  -23.9311   -0.1398 O   0  0
    9.3757  -14.2032   -0.5692 H   0  0
    9.4649  -16.6453   -1.2185 H   0  0
   11.5425  -17.8281   -1.1930 H   0  0
   11.3546  -13.1138    0.2292 H   0  0
   14.8911  -15.0785    1.7915 H   0  0
   12.7861  -21.5506    1.2331 H   0  0
   16.2829  -21.1544   -1.1667 H   0  0
   15.8923  -18.8131   -1.3968 H   0  0
   12.2064  -18.8489    2.3404 H   0  0
   11.5945  -18.0750    0.8584 H   0  0
    9.9708  -19.7921    1.7015 H   0  0
   11.2372  -21.0381    1.5971 H   0  0
   10.6255  -20.2645    0.1156 H   0  0
   16.3058  -17.6068    1.6605 H   0  0
   14.7871  -23.1156    1.4501 H   0  0
   13.9275  -23.5432   -0.0491 H   0  0
   16.0696  -23.7540   -1.2696 H   0  0
   15.3204  -25.2105    1.1917 H   0  0
   17.9828  -27.2248   -1.3350 H   0  0
   18.4299  -25.5389   -0.9817 H   0  0
   17.0966  -25.8888   -2.1075 H   0  0
   18.6294  -24.3668   -0.8089 H   0  0
   19.9935  -21.9739   -0.2962 H   0  0
   19.8317  -22.6868    1.3270 H   0  0
   21.0525  -24.7039    0.6333 H   0  0
   21.0573  -24.1736   -1.0662 H   0  0
   22.5119  -22.2409   -0.4889 H   0  0
   22.4546  -22.6863    1.2338 H   0  0
   23.6987  -24.7601    0.8020 H   0  0
   23.6110  -24.4991   -0.9568 H   0  0
   24.9369  -25.8147   -0.0481 H   0  0
   26.9411  -27.3491   -0.1602 H   0  0
   29.1630  -26.4350   -0.1885 H   0  0
   30.5871  -20.3727    0.4042 H   0  0
   30.2989  -21.8603   -0.5290 H   0  0
   30.0820  -21.8619    1.2375 H   0  0
   30.3631  -24.3414    0.6777 H   0  0
  5  6  1  0
 17 24  1  0
  5 12  1  0
 25 24  1  0
  6  1  2  0
 25 26  1  0
 12 13  2  0
 26 27  1  0
  1  2  1  0
 27 28  2  0
 12 14  1  0
 27 29  1  0
  4  7  1  0
 25 30  1  0
  8 15  2  0
 30 31  1  0
  3  4  1  0
 30 32  2  0
 15 16  1  0
 31 33  1  0
  7  8  1  0
 33 34  1  0
 16 17  2  0
 34 35  1  0
 35 36  1  0
 17 18  1  0
 36 37  1  0
  7  9  1  0
 37 38  1  0
 18 19  2  0
 38 39  2  0
 19  8  1  0
 39 40  1  0
  4  5  2  0
 40 41  2  0
 15 20  1  0
 41 42  1  0
  9 10  1  0
 42 43  2  0
 43 38  1  0
 20 21  1  0
  2  3  2  0
  9 11  2  0
 44 45  1  0
 44 46  2  0
 43 44  1  0
 10 22  1  0
 45 47  1  0
 10 23  2  0
 42 48  1  0
  1 49  1  0
  2 50  1  0
  3 51  1  0
  6 52  1  0
 14 53  1  0
 16 54  1  0
 18 55  1  0
 19 56  1  0
 20 57  1  0
 20 58  1  0
 21 59  1  0
 21 60  1  0
 21 61  1  0
 22 62  1  0
 24 63  1  0
 24 64  1  0
 25 65  1  0
 26 66  1  0
 29 67  1  0
 29 68  1  0
 29 69  1  0
 31 70  1  0
 33 71  1  0
 33 72  1  0
 34 73  1  0
 34 74  1  0
 35 75  1  0
 35 76  1  0
 36 77  1  0
 36 78  1  0
 39 79  1  0
 40 80  1  0
 41 81  1  0
 47 82  1  0
 47 83  1  0
 47 84  1  0
 48 85  1  0
M  END
> <Name>
Molecule

> <Clean Energy>
96.9254

> <From>
www.bindingDB.org

> <BindingDB Reactant_set_id>
50760344

> <Ligand InChI>
InChI=1S/C34H37N3O11/c1-4-22-18-21(14-15-25(22)37(31(41)33(44)45)26-11-6-5-10-23(26)32(42)43)19-24(36-20(2)38)30(40)35-16-7-8-17-48-28-13-9-12-27(39)29(28)34(46)47-3/h5-6,9-15,18,24,39H,4,7-8,16-17,19
H2,1-3H3,(H,35,40)(H,36,38)(H,42,43)(H,44,45)/t24-/m0/s1

> <Ligand InChI Key>
IQYFRRLUZSIOTL-DEOSSOPVSA-N

> <BindingDB MonomerID>
50308852

> <BindingDB Ligand Name>
(S)-2-(N-(4-(2-acetamido-3-(4-(3-hydroxy-2-(methoxycarbonyl)phenoxy)butylamino)-3-oxopropyl)-2-ethylphenyl)-1-carboxyformamido)benzoic acid::CHEMBL590122

> <Target Name>
Tyrosine-protein phosphatase non-receptor type 1

> <Target Source Organism According to Curator or DataSource>
Homo sapiens

> <IC50 (nM)>
18

> <Curation/DataSource>
ChEMBL

> <Article DOI>
10.1016/j.ejmech.2017.04.004

> <BindingDB Entry DOI>
10.7270/Q2WD42QK

> <PMID>
28395151

> <Authors>
Zhang, R; Yu, R; Xu, Q; Li, X; Luo, J; Jiang, B; Wang, L; Guo, S; Wu, N; Shi, D

> <Institution>
Chinese Academy of Sciences

> <Link to Ligand in BindingDB>
http://www.bindingdb.org/bind/chemsearch/marvin/MolStructure.jsp?monomerid=50308852

> <Link to Ligand-Target Pair in BindingDB>
http://www.bindingdb.org/jsp/dbsearch/PrimarySearch_ki.jsp?energyterm=kJ/mole&tag=pol&polymerid=2622&target=Tyrosine-protein+phosphatase+non-receptor+type+1&column=ki&startPg=0&Increment=50&submit=Sea
rch
http://www.bindingdb.org/jsp/dbsearch/PrimarySearch_ki.jsp?energyterm=kJ/mole&tag=r21&monomerid=50308852&enzyme=Tyrosine-protein+phosphatase+non-receptor+type+1&column=ki&startPg=0&Increment=50&submit
=Search

> <PubChem CID of Ligand>
10211810

> <PubChem SID of Ligand>
104163213

> <ChEMBL ID of Ligand>
CHEMBL590122

> <ZINC ID of Ligand>
ZINC03991175

> <Number of Protein Chains in Target (bigger than 1 implies a multichain complex)>
1

> <BindingDB Target Chain Sequence>
MEMEKEFEQIDKSGSWAAIYQDIRHEASDFPCRVAKLPKNKNRNRYRDVSPFDHSRIKLHQEDNDYINASLIKMEEAQRSYILTQGPLPNTCGHFWEMVWEQKSRGVVMLNRVMEKGSLKCAQYWPQKEEKEMIFEDTNLKLTLISEDIKSYYTVRQLELENLTTQETREILHFHYTTWPDFGVPESPASFLNFLFKVRE
SGSLSPEHGPVVVHCSAGIGRSGTFCLADTCLLLMDKRKDPSSVDIKKVLLEMRKFRMGLIQTADQLRFSYLAVIEGAKFIMGDSSVQDQWKELSHEDLEPPPEHIPPPPRPPKRILEPHNGKCREFFPNHQWVKEETQEDKDCPIKEEKGSPLNAAPYGIESMSQDTEVRSRVVGGSLRGAQAASPAKGEPSLPEKDED
HALSYWKPFLVNMCVATVLTAGAYLCYRFLFNSNT

> <PDB ID(s) of Target Chain>
1BZJ,1G7G,1GFY,1JF7,1KAK,1KAV,1LQF,1NL9,1NNY,1NO6,1NZ7,1OEM,1OEO,1OES,1OET,1OEU,1OEV,1ONY,1ONZ,1PH0,1PXH,1PYN,1Q1M,1Q6J,1Q6M,1Q6N,1Q6P,1Q6S,1Q6T,1QXK,1SUG,1T48,1T49,1T4J,1WAX,1XBO,2AZR,2B07,2BGD,2BGE,
2CM2,2CM3,2CM7,2CM8,2CMA,2CMB,2CMC,2CNE,2CNF,2CNG,2CNH,2CNI,2F6T,2F6V,2F6W,2F6Y,2F6Z,2F70,2F71,2FJN,2H4G,2H4K,2HB1,2HNP,2HNQ,2QBP,2QBQ,2QBR,2QBS,2VEU,2VEV,2VEW,2VEX,2VEY,2ZMM,2ZN7,3A5J,3CWE,3D9C,3EAX,
3EB1,3EU0,3I7Z,3I80,3SME,4BJO,4I8N,4QBW,4Y14,5K9V,5K9W,5KA0,5KA1,5T19,6B90,6NTP,6W30,7KEY,7KLX,7LFO,7MN9,7MNA,8DU7,8G65,8G67,8G68,8G69,8G6A,8SKL

> <UniProt (SwissProt) Recommended Name of Target Chain>
Tyrosine-protein phosphatase non-receptor type 1

> <UniProt (SwissProt) Entry Name of Target Chain>
PTN1_HUMAN

> <UniProt (SwissProt) Primary ID of Target Chain>
P18031

> <UniProt (SwissProt) Secondary ID(s) of Target Chain>
Q5TGD8 Q9BQV9 Q9NQQ4

$$$$
Molecule
  SciTegic10242319433D

 68 72  0  0  0  0            999 V2000
    0.8908   -6.8580   -1.2523 O   0  0
    1.1054   -7.7480   -0.0011 P   0  0
    1.0185   -7.0032    1.1586 O   0  0
    2.6197   -9.3069   -1.2060 F   0  0
    2.5846   -8.5172   -0.0761 C   0  0
    2.6877   -9.3866    0.9893 F   0  0
    7.5848  -10.5934   -0.6741 O   0  0
    8.8049  -10.9562    0.1483 S   0  0
    8.4906  -10.6789    1.6051 O   0  0
   10.1914   -9.9249   -0.3091 N   0  0
   11.4804  -10.4983    0.2749 C   0  0
    9.9875   -8.5432    0.2684 C   0  0
    8.9555  -12.7419   -0.0012 C   0  0
    7.8249  -13.4440    0.0398 C   0  0
    7.8473  -14.8991   -0.0126 C   0  0
    9.0073  -15.5498   -0.0898 C   0  0
   10.2612  -14.7903   -0.1364 C   0  0
   10.2386  -13.4577   -0.0963 C   0  0
    8.6845   -7.7727    0.0889 C   0  0
    8.7600   -6.4439    0.1073 C   0  0
    7.5534   -5.6538    0.0379 C   0  0
    7.4151   -8.3954    0.0235 N   0  0
   12.8711   -9.7852    0.1011 C   0  0
   13.9624  -10.4978    0.3888 C   0  0
   15.3018   -9.8957    0.3119 C   0  0
   15.4433   -8.6165   -0.0287 C   0  0
   14.2652   -7.8182   -0.3526 C   0  0
   13.0512   -8.3656   -0.3037 C   0  0
   16.7749   -8.0034   -0.0633 C   0  0
   17.8977   -8.6830    0.1735 C   0  0
   19.0732   -7.5322    0.0299 S   0  0
   18.1648   -6.2360   -0.3080 N   0  0
   16.9874   -6.5796   -0.3383 N   0  0
    9.0391  -16.9547   -0.1182 O   0  0
    7.7103  -17.5017   -0.0518 C   0  0
    7.7811  -18.9974   -0.0205 C   0  0
    6.6102  -19.7479    0.0266 O   0  0
    8.8796  -19.5633   -0.0279 O   0  0
    6.3375   -7.7123   -0.0218 C   0  0
    6.3838   -6.2783   -0.0162 C   0  0
    5.1617   -5.5229   -0.0396 C   0  0
    3.9715   -6.1237   -0.0600 C   0  0
    3.8890   -7.6637   -0.0708 C   0  0
    5.0275   -8.3686   -0.0554 C   0  0
    2.4734   -4.9497   -0.0571 Br  0  0
   -0.0106   -8.8216    0.0200 O   0  0
   -0.0601   -6.4148   -1.2082 H   0  0
   11.5932  -11.4929   -0.1565 H   0  0
   11.3153  -10.5841    1.3489 H   0  0
   10.7721   -7.9171   -0.1564 H   0  0
   10.1395   -8.6376    1.3436 H   0  0
    6.8703  -12.9230    0.1135 H   0  0
    6.9117  -15.4578    0.0114 H   0  0
   11.2135  -15.3163   -0.2038 H   0  0
   11.1724  -12.8968   -0.1341 H   0  0
    9.7309   -5.9531    0.1747 H   0  0
    7.6024   -4.5649    0.0300 H   0  0
   13.8593  -11.5417    0.6851 H   0  0
   16.1820  -10.4989    0.5347 H   0  0
   14.3786   -6.7716   -0.6353 H   0  0
   12.1794   -7.7654   -0.5637 H   0  0
   18.0118   -9.7418    0.4057 H   0  0
    7.2160  -17.1435    0.8512 H   0  0
    7.1438  -17.1841   -0.9271 H   0  0
    6.0705  -19.5014    0.8929 H   0  0
    5.2087   -4.4339   -0.0408 H   0  0
    4.9788   -9.4575   -0.0683 H   0  0
   -0.9484   -8.3515    0.0664 H   0  0
 11 23  1  0
  8 13  1  0
 23 24  2  0
  5  4  1  0
 24 25  1  0
 13 14  2  0
 25 26  2  0
  6  5  1  0
 26 27  1  0
 14 15  1  0
 27 28  2  0
 28 23  1  0
 29 30  2  0
 15 16  2  0
  2  1  1  0
 16 17  1  0
  3  2  2  0
 30 31  1  0
 31 32  1  0
 32 33  2  0
 33 29  1  0
 26 29  1  0
 17 18  2  0
 16 34  1  0
 18 13  1  0
 34 35  1  0
 10 11  1  0
 35 36  1  0
 12 19  1  0
 36 37  1  0
 10  8  1  0
 36 38  2  0
 19 20  2  0
  8  7  2  0
 39 40  1  0
 20 21  1  0
 40 41  1  0
 21 40  2  0
 41 42  2  0
 10 12  1  0
 42 43  1  0
 39 22  2  0
 43 44  2  0
 44 39  1  0
 22 19  1  0
 42 45  1  0
 43  5  1  0
  5  2  1  0
  9  8  2  0
  2 46  1  0
  1 47  1  0
 11 48  1  0
 11 49  1  0
 12 50  1  0
 12 51  1  0
 14 52  1  0
 15 53  1  0
 17 54  1  0
 18 55  1  0
 20 56  1  0
 21 57  1  0
 24 58  1  0
 25 59  1  0
 27 60  1  0
 28 61  1  0
 30 62  1  0
 35 63  1  0
 35 64  1  0
 37 65  1  0
 41 66  1  0
 44 67  1  0
 46 68  1  0
M  END
> <Name>
Molecule

> <Clean Energy>
61.2541

> <From>
www.bindingDB.org

> <BindingDB Reactant_set_id>
50713196

> <Ligand InChI>
InChI=1S/C28H22BrF2N4O8PS2/c29-24-11-19-5-6-20(32-25(19)12-23(24)28(30,31)44(38,39)40)14-35(13-17-1-3-18(4-2-17)26-16-45-34-33-26)46(41,42)22-9-7-21(8-10-22)43-15-27(36)37/h1-12,16H,13-15H2,(H,36,37)(
H2,38,39,40)

> <Ligand InChI Key>
WNDUPKPFOJFFCO-UHFFFAOYSA-N

> <BindingDB MonomerID>
50362192

> <BindingDB Ligand Name>
CHEMBL1938825

> <Target Name>
Tyrosine-protein phosphatase non-receptor type 1

> <Target Source Organism According to Curator or DataSource>
Homo sapiens

> <IC50 (nM)>
18

> <Curation/DataSource>
ChEMBL

> <Article DOI>
10.1016/j.bmcl.2011.11.122

> <BindingDB Entry DOI>
10.7270/Q2ZS2X05

> <PMID>
22189136

> <Authors>
Patel, D; Jain, M; Shah, SR; Bahekar, R; Jadav, P; Joharapurkar, A; Dhanesha, N; Shaikh, M; Sairam, KV; Kapadnis, P

> <Institution>
M.S. University of Baroda

> <Link to Ligand in BindingDB>
http://www.bindingdb.org/bind/chemsearch/marvin/MolStructure.jsp?monomerid=50362192

> <Link to Ligand-Target Pair in BindingDB>
http://www.bindingdb.org/jsp/dbsearch/PrimarySearch_ki.jsp?energyterm=kJ/mole&tag=pol&polymerid=2622&target=Tyrosine-protein+phosphatase+non-receptor+type+1&column=ki&startPg=0&Increment=50&submit=Sea
rch
http://www.bindingdb.org/jsp/dbsearch/PrimarySearch_ki.jsp?energyterm=kJ/mole&tag=r21&monomerid=50362192&enzyme=Tyrosine-protein+phosphatase+non-receptor+type+1&column=ki&startPg=0&Increment=50&submit
=Search

> <PubChem CID of Ligand>
57401165

> <PubChem SID of Ligand>
136966254

> <ChEMBL ID of Ligand>
CHEMBL1938825

> <ZINC ID of Ligand>
ZINC95549472

> <Number of Protein Chains in Target (bigger than 1 implies a multichain complex)>
1

> <BindingDB Target Chain Sequence>
MEMEKEFEQIDKSGSWAAIYQDIRHEASDFPCRVAKLPKNKNRNRYRDVSPFDHSRIKLHQEDNDYINASLIKMEEAQRSYILTQGPLPNTCGHFWEMVWEQKSRGVVMLNRVMEKGSLKCAQYWPQKEEKEMIFEDTNLKLTLISEDIKSYYTVRQLELENLTTQETREILHFHYTTWPDFGVPESPASFLNFLFKVRE
SGSLSPEHGPVVVHCSAGIGRSGTFCLADTCLLLMDKRKDPSSVDIKKVLLEMRKFRMGLIQTADQLRFSYLAVIEGAKFIMGDSSVQDQWKELSHEDLEPPPEHIPPPPRPPKRILEPHNGKCREFFPNHQWVKEETQEDKDCPIKEEKGSPLNAAPYGIESMSQDTEVRSRVVGGSLRGAQAASPAKGEPSLPEKDED
HALSYWKPFLVNMCVATVLTAGAYLCYRFLFNSNT

> <PDB ID(s) of Target Chain>
1BZJ,1G7G,1GFY,1JF7,1KAK,1KAV,1LQF,1NL9,1NNY,1NO6,1NZ7,1OEM,1OEO,1OES,1OET,1OEU,1OEV,1ONY,1ONZ,1PH0,1PXH,1PYN,1Q1M,1Q6J,1Q6M,1Q6N,1Q6P,1Q6S,1Q6T,1QXK,1SUG,1T48,1T49,1T4J,1WAX,1XBO,2AZR,2B07,2BGD,2BGE,
2CM2,2CM3,2CM7,2CM8,2CMA,2CMB,2CMC,2CNE,2CNF,2CNG,2CNH,2CNI,2F6T,2F6V,2F6W,2F6Y,2F6Z,2F70,2F71,2FJN,2H4G,2H4K,2HB1,2HNP,2HNQ,2QBP,2QBQ,2QBR,2QBS,2VEU,2VEV,2VEW,2VEX,2VEY,2ZMM,2ZN7,3A5J,3CWE,3D9C,3EAX,
3EB1,3EU0,3I7Z,3I80,3SME,4BJO,4I8N,4QBW,4Y14,5K9V,5K9W,5KA0,5KA1,5T19,6B90,6NTP,6W30,7KEY,7KLX,7LFO,7MN9,7MNA,8DU7,8G65,8G67,8G68,8G69,8G6A,8SKL

> <UniProt (SwissProt) Recommended Name of Target Chain>
Tyrosine-protein phosphatase non-receptor type 1

> <UniProt (SwissProt) Entry Name of Target Chain>
PTN1_HUMAN

> <UniProt (SwissProt) Primary ID of Target Chain>
P18031

> <UniProt (SwissProt) Secondary ID(s) of Target Chain>
Q5TGD8 Q9BQV9 Q9NQQ4

$$$$
Molecule
  SciTegic10242319433D

 71 76  0  0  0  0            999 V2000
   -1.0669   -0.0020    0.3677 C   0  0
   -2.0873   -1.1601   -0.1900 N   0  0
   -2.1919    1.1325    0.4237 C   0  0
   -1.6334   -2.4469   -0.4181 N   0  0
   -2.3753    2.0984   -0.4400 N   0  0
    6.0249    3.6941    0.3534 P   0  0
    2.5805   -6.5040   -0.1947 P   0  0
    3.4482   -5.1940    0.3668 C   0  0
    5.4650    2.1434    0.2010 C   0  0
   -2.5134   -3.2745   -0.6180 N   0  0
   -3.3985    1.2326    1.6524 S   0  0
   -3.5458   -1.3126   -0.3480 C   0  0
   -3.7317   -2.6638   -0.5764 C   0  0
   -3.5407    2.9415   -0.1302 C   0  0
   -4.2349    2.5226    1.0302 C   0  0
   -0.4029    1.3226   -0.3325 C   0  0
    0.0562   -0.5092   -0.6600 C   0  0
    2.5979   -3.9677    0.1722 C   0  0
    3.9515    2.0652    0.1722 C   0  0
    2.2720   -6.3128   -1.5268 O   0  0
    5.5762    4.4706   -0.6955 O   0  0
    5.9406    1.6880   -1.0133 F   0  0
    3.7066   -5.4113    1.7028 F   0  0
    5.9509    1.3739    1.2359 F   0  0
    4.6072   -5.0942   -0.3758 F   0  0
    3.4271   -7.7925   -0.0447 O   0  0
    1.2687   -6.6589    0.6178 O   0  0
    5.5405    4.2912    1.6942 O   0  0
    7.5771    3.6581    0.3330 O   0  0
    3.2375    1.3636    1.2460 C   0  0
    2.8087   -3.1395   -1.0080 C   0  0
    3.2762    2.5504   -0.8688 C   0  0
    1.6398   -3.6503    1.0437 C   0  0
    0.9510   -1.7434   -0.3064 C   0  0
    1.1532    1.6642   -0.0445 C   0  0
    1.9193    1.1749    1.1677 C   0  0
    2.0267   -2.0895   -1.2365 C   0  0
    0.7840   -2.4758    0.8017 C   0  0
    1.8248    2.3460   -0.9802 C   0  0
   -4.6051   -0.4973   -0.3097 C   0  0
   -4.9146   -3.2402   -0.7334 C   0  0
   -3.9706    3.9754   -0.8502 C   0  0
   -5.3487    3.0954    1.4658 C   0  0
   -5.9550   -1.0717   -0.4845 C   0  0
   -6.1034   -2.3864   -0.6737 C   0  0
   -5.8611    4.2473    0.6886 C   0  0
   -5.2018    4.6701   -0.4006 C   0  0
   -0.5092    1.2014   -1.4105 H   0  0
   -0.9851    2.1835   -0.0040 H   0  0
   -0.4574   -0.7513   -1.5905 H   0  0
    0.7316    0.3302   -0.8250 H   0  0
    4.3125   -7.6969   -0.6011 H   0  0
    1.4997   -6.8066    1.6314 H   0  0
    4.4907    4.2959    1.7168 H   0  0
    7.9246    3.0707    1.1310 H   0  0
    3.7874    0.9950    2.1119 H   0  0
    3.6104   -3.3819   -1.7056 H   0  0
    3.8048    3.1039   -1.6449 H   0  0
    1.4898   -4.2597    1.9349 H   0  0
    1.3928    0.6682    1.9765 H   0  0
    2.1881   -1.4799   -2.1257 H   0  0
    0.0152   -2.2033    1.5246 H   0  0
    1.2884    2.7552   -1.8363 H   0  0
   -4.4747    0.5734   -0.1520 H   0  0
   -5.0001   -4.3138   -0.9013 H   0  0
   -3.4349    4.3012   -1.7418 H   0  0
   -5.8641    2.7345    2.3558 H   0  0
   -6.8305   -0.4228   -0.4591 H   0  0
   -7.0981   -2.8185   -0.7825 H   0  0
   -6.7749    4.7522    1.0020 H   0  0
   -5.5732    5.5295   -0.9588 H   0  0
  2  1  1  0
  3  1  1  0
  4  2  1  0
  5  3  2  0
  6  9  1  0
  7  8  1  0
  8 18  1  0
  9 19  1  0
 10  4  2  0
 11  3  1  0
 12  2  1  0
 13 12  1  0
 14  5  1  0
 15 11  1  0
 16  1  1  0
 17  1  1  0
 18 33  2  0
 19 32  2  0
 20  7  2  0
 21  6  2  0
 22  9  1  0
 23  8  1  0
 24  9  1  0
 25  8  1  0
 26  7  1  0
 27  7  1  0
 28  6  1  0
 29  6  1  0
 30 36  2  0
 31 37  2  0
 32 39  1  0
 33 38  1  0
 34 17  1  0
 35 16  1  0
 36 35  1  0
 37 34  1  0
 38 34  2  0
 39 35  2  0
 40 12  2  0
 41 13  2  0
 42 14  2  0
 43 15  2  0
 44 40  1  0
 45 44  2  0
 46 43  1  0
 47 42  1  0
 14 15  1  0
 10 13  1  0
 18 31  1  0
 19 30  1  0
 46 47  2  0
 41 45  1  0
 16 48  1  0
 16 49  1  0
 17 50  1  0
 17 51  1  0
 26 52  1  0
 27 53  1  0
 28 54  1  0
 29 55  1  0
 30 56  1  0
 31 57  1  0
 32 58  1  0
 33 59  1  0
 36 60  1  0
 37 61  1  0
 38 62  1  0
 39 63  1  0
 40 64  1  0
 41 65  1  0
 42 66  1  0
 43 67  1  0
 44 68  1  0
 45 69  1  0
 46 70  1  0
 47 71  1  0
M  END
> <Name>
Molecule

> <Clean Energy>
222.103

> <From>
www.bindingDB.org

> <BindingDB Reactant_set_id>
50026913

> <Ligand InChI>
InChI=1S/C30H24F4N4O6P2S/c31-29(32,45(39,40)41)21-13-9-19(10-14-21)17-28(27-35-24-6-2-4-8-26(24)47-27,38-25-7-3-1-5-23(25)36-37-38)18-20-11-15-22(16-12-20)30(33,34)46(42,43)44/h1-16H,17-18H2,(H2,39,40
,41)(H2,42,43,44)

> <Ligand InChI Key>
GHQSTVDLTPVSRM-UHFFFAOYSA-N

> <BindingDB MonomerID>
50142330

> <BindingDB Ligand Name>
CHEMBL8662::[(4-{2-Benzothiazol-2-yl-2-benzotriazol-1-yl-3-[4-(difluoro-phosphono-methyl)-phenyl]-propyl}-phenyl)-difluoro-methyl]-phosphonic acid

> <Target Name>
Tyrosine-protein phosphatase non-receptor type 1

> <Target Source Organism According to Curator or DataSource>
Homo sapiens

> <IC50 (nM)>
18

> <Curation/DataSource>
ChEMBL

> <Article DOI>
10.1016/j.bmcl.2003.11.076

> <BindingDB Entry DOI>
10.7270/Q24M9404

> <PMID>
15013020

> <Authors>
Lau, CK; Bayly, CI; Gauthier, JY; Li, CS; Therien, M; Asante-Appiah, E; Cromlish, W; Boie, Y; Forghani, F; Desmarais, S; Wang, Q; Skorey, K; Waddleton, D; Payette, P; Ramachandran, C; Kennedy, BP; Sca
pin, G

> <Institution>
Merck Frosst Centre for Therapeutic Research

> <Link to Ligand in BindingDB>
http://www.bindingdb.org/bind/chemsearch/marvin/MolStructure.jsp?monomerid=50142330

> <Link to Ligand-Target Pair in BindingDB>
http://www.bindingdb.org/jsp/dbsearch/PrimarySearch_ki.jsp?energyterm=kJ/mole&tag=pol&polymerid=2622&target=Tyrosine-protein+phosphatase+non-receptor+type+1&column=ki&startPg=0&Increment=50&submit=Sea
rch
http://www.bindingdb.org/jsp/dbsearch/PrimarySearch_ki.jsp?energyterm=kJ/mole&tag=r21&monomerid=50142330&enzyme=Tyrosine-protein+phosphatase+non-receptor+type+1&column=ki&startPg=0&Increment=50&submit
=Search

> <PubChem CID of Ligand>
44265698

> <PubChem SID of Ligand>
104031721

> <ChEMBL ID of Ligand>
CHEMBL8662

> <ZINC ID of Ligand>
ZINC25993069

> <Number of Protein Chains in Target (bigger than 1 implies a multichain complex)>
1

> <BindingDB Target Chain Sequence>
MEMEKEFEQIDKSGSWAAIYQDIRHEASDFPCRVAKLPKNKNRNRYRDVSPFDHSRIKLHQEDNDYINASLIKMEEAQRSYILTQGPLPNTCGHFWEMVWEQKSRGVVMLNRVMEKGSLKCAQYWPQKEEKEMIFEDTNLKLTLISEDIKSYYTVRQLELENLTTQETREILHFHYTTWPDFGVPESPASFLNFLFKVRE
SGSLSPEHGPVVVHCSAGIGRSGTFCLADTCLLLMDKRKDPSSVDIKKVLLEMRKFRMGLIQTADQLRFSYLAVIEGAKFIMGDSSVQDQWKELSHEDLEPPPEHIPPPPRPPKRILEPHNGKCREFFPNHQWVKEETQEDKDCPIKEEKGSPLNAAPYGIESMSQDTEVRSRVVGGSLRGAQAASPAKGEPSLPEKDED
HALSYWKPFLVNMCVATVLTAGAYLCYRFLFNSNT

> <PDB ID(s) of Target Chain>
1BZJ,1G7G,1GFY,1JF7,1KAK,1KAV,1LQF,1NL9,1NNY,1NO6,1NZ7,1OEM,1OEO,1OES,1OET,1OEU,1OEV,1ONY,1ONZ,1PH0,1PXH,1PYN,1Q1M,1Q6J,1Q6M,1Q6N,1Q6P,1Q6S,1Q6T,1QXK,1SUG,1T48,1T49,1T4J,1WAX,1XBO,2AZR,2B07,2BGD,2BGE,
2CM2,2CM3,2CM7,2CM8,2CMA,2CMB,2CMC,2CNE,2CNF,2CNG,2CNH,2CNI,2F6T,2F6V,2F6W,2F6Y,2F6Z,2F70,2F71,2FJN,2H4G,2H4K,2HB1,2HNP,2HNQ,2QBP,2QBQ,2QBR,2QBS,2VEU,2VEV,2VEW,2VEX,2VEY,2ZMM,2ZN7,3A5J,3CWE,3D9C,3EAX,
3EB1,3EU0,3I7Z,3I80,3SME,4BJO,4I8N,4QBW,4Y14,5K9V,5K9W,5KA0,5KA1,5T19,6B90,6NTP,6W30,7KEY,7KLX,7LFO,7MN9,7MNA,8DU7,8G65,8G67,8G68,8G69,8G6A,8SKL

> <UniProt (SwissProt) Recommended Name of Target Chain>
Tyrosine-protein phosphatase non-receptor type 1

> <UniProt (SwissProt) Entry Name of Target Chain>
PTN1_HUMAN

> <UniProt (SwissProt) Primary ID of Target Chain>
P18031

> <UniProt (SwissProt) Secondary ID(s) of Target Chain>
Q5TGD8 Q9BQV9 Q9NQQ4

$$$$
Molecule
  SciTegic10242319433D

 60 64  0  0  0  0            999 V2000
   19.0620  -15.2410   -0.1570 C   0  0
   19.0239  -16.5626   -0.2375 C   0  0
   20.3184  -17.3204   -0.1752 C   0  0
   21.5399  -16.7346   -0.1219 C   0  0
   21.5091  -15.2797   -0.0739 C   0  0
   20.3455  -14.6583   -0.0758 C   0  0
   17.7797  -14.3537   -0.3789 C   0  0
   22.9404  -17.6232    0.0518 C   0  0  1  0  0  0
   17.6321  -12.7785    0.1435 C   0  0  2  0  0  0
   16.2705  -12.1429   -0.3587 N   0  0
   18.9641  -11.7775   -0.0464 C   0  0
   20.1998  -12.1654   -0.0399 N   0  0
   18.9572  -10.3348   -0.0583 N   0  0
   20.3350   -9.9520   -0.0492 C   0  0
   21.0828  -11.0769   -0.0562 C   0  0
   22.4237  -11.0674   -0.0287 C   0  0
   23.1138   -9.7517   -0.0057 C   0  0
   22.3743   -8.6353    0.0004 C   0  0
   20.8808   -8.7375   -0.0196 C   0  0
   22.9148  -19.3318   -0.4774 S   0  0
   24.5665  -19.4965   -0.0710 N   0  5
   25.2429  -18.2902   -0.0981 C   0  0
   24.3708  -17.1029   -0.4321 C   0  0
   22.8949  -20.4219    0.5509 O   0  0
   21.5657  -19.5200    0.1737 O   0  0
   26.4622  -18.2162    0.1091 O   0  0
   14.7877  -12.9738    0.3297 S   0  0
   13.0958  -13.5939    0.0863 C   0  0
   15.1732  -13.6475   -0.9381 O   0  0
   14.3170  -11.5613    0.2156 O   0  0
   11.9562  -12.8553    0.0009 C   0  0
   10.6725  -13.5803   -0.1119 C   0  0
   10.6243  -14.9138   -0.1177 C   0  0
   11.8460  -15.6887   -0.0139 C   0  0
   13.0089  -15.0614    0.0785 C   0  0
   22.7276  -14.4181    0.0022 C   0  0
   11.8945  -11.3849    0.0283 C   0  0
   11.8425  -10.2318    0.0527 N   0  0
   18.0749  -17.0876   -0.3465 H   0  0
   20.2734  -18.4095   -0.1727 H   0  0
   20.3786  -13.5710   -0.0067 H   0  0
   16.9597  -14.8978    0.0897 H   0  0
   17.6260  -14.3222   -1.4576 H   0  0
   23.0553  -17.6988    1.1331 H   0  0
   17.5091  -12.8625    1.2233 H   0  0
   16.2354  -12.2140   -1.4258 H   0  0
   18.1039   -9.6894   -0.0712 H   0  0
   22.9909  -11.9981   -0.0234 H   0  0
   24.2023   -9.6963    0.0060 H   0  0
   22.8569   -7.6582    0.0197 H   0  0
   20.2578   -7.8431   -0.0101 H   0  0
   24.6793  -16.2136    0.1177 H   0  0
   24.3779  -16.8903   -1.5011 H   0  0
    9.7453  -13.0130   -0.1920 H   0  0
    9.6638  -15.4224   -0.2006 H   0  0
   11.8074  -16.7780   -0.0121 H   0  0
   13.9247  -15.6481    0.1506 H   0  0
   22.4308  -13.3696    0.0262 H   0  0
   23.3553  -14.5976   -0.8706 H   0  0
   23.2866  -14.6576    0.9068 H   0  0
  3  4  2  0
 18 19  1  0
 19 14  2  0
  8 20  1  0
  9  7  1  0
  1  2  2  0
  9 10  1  0
  4  5  1  0
 20 21  1  0
 21 22  1  0
 22 23  1  0
  8 23  1  0
  9 11  1  0
 20 24  2  0
 11 12  2  0
 20 25  2  0
 22 26  2  0
  5  6  2  0
 10 27  1  0
 12 15  1  0
 27 28  1  0
 14 13  1  0
 27 29  2  0
 13 11  1  0
 27 30  2  0
  6  1  1  0
 28 31  2  0
  2  3  1  0
 31 32  1  0
 14 15  1  0
 32 33  2  0
  1  7  1  0
 33 34  1  0
 15 16  2  0
 34 35  2  0
 35 28  1  0
  5 36  1  0
 16 17  1  0
 31 37  1  0
  8  4  1  0
 37 38  3  0
 17 18  2  0
  2 39  1  0
  3 40  1  0
  6 41  1  0
  7 42  1  0
  7 43  1  0
  8 44  1  0
  9 45  1  0
 10 46  1  0
 13 47  1  0
 16 48  1  0
 17 49  1  0
 18 50  1  0
 19 51  1  0
 23 52  1  0
 23 53  1  0
 32 54  1  0
 33 55  1  0
 34 56  1  0
 35 57  1  0
 36 58  1  0
 36 59  1  0
 36 60  1  0
M  CHG  1  21  -1
M  END
> <Name>
Molecule

> <Clean Energy>
304.881

> <From>
www.bindingDB.org

> <BindingDB Reactant_set_id>
50350968

> <Ligand InChI>
InChI=1S/C26H23N5O5S2/c1-16-12-17(10-11-19(16)24-14-25(32)31-38(24,35)36)13-22(26-28-20-7-3-4-8-21(20)29-26)30-37(33,34)23-9-5-2-6-18(23)15-27/h2-12,22,24,30H,13-14H2,1H3,(H2,28,29,31,32)/p-1/t22-,24-
/m0/s1

> <Ligand InChI Key>
OFSITWNNXWPRTE-UPVQGACJSA-M

> <BindingDB MonomerID>
50189687

> <BindingDB Ligand Name>
CHEMBL211352::N-((1S)-1-(1H-benzimidazol-2-yl)-2-{4-[(5S)-1,1-dioxido-3-oxoisothiazolidin-5-yl]-3-methylphenyl}ethyl)-2-cyanobenzenesulfonamide

> <Target Name>
Tyrosine-protein phosphatase non-receptor type 1

> <Target Source Organism According to Curator or DataSource>
Homo sapiens

> <IC50 (nM)>
18

> <Curation/DataSource>
ChEMBL

> <Article DOI>
10.1021/jm0600904

> <BindingDB Entry DOI>
10.7270/Q2JQ10M8

> <PMID>
16789735

> <Authors>
Combs, AP; Zhu, W; Crawley, ML; Glass, B; Polam, P; Sparks, RB; Modi, D; Takvorian, A; McLaughlin, E; Yue, EW; Wasserman, Z; Bower, M; Wei, M; Rupar, M; Ala, PJ; Reid, BM; Ellis, D; Gonneville, L; Emm
, T; Taylor, N; Yeleswaram, S; Li, Y; Wynn, R; Burn, TC; Hollis, G; Liu, PC; Metcalf, B

> <Institution>
Incyte Corporation

> <Link to Ligand in BindingDB>
http://www.bindingdb.org/bind/chemsearch/marvin/MolStructure.jsp?monomerid=50189687

> <Link to Ligand-Target Pair in BindingDB>
http://www.bindingdb.org/jsp/dbsearch/PrimarySearch_ki.jsp?energyterm=kJ/mole&tag=pol&polymerid=2622&target=Tyrosine-protein+phosphatase+non-receptor+type+1&column=ki&startPg=0&Increment=50&submit=Sea
rch
http://www.bindingdb.org/jsp/dbsearch/PrimarySearch_ki.jsp?energyterm=kJ/mole&tag=r21&monomerid=50189687&enzyme=Tyrosine-protein+phosphatase+non-receptor+type+1&column=ki&startPg=0&Increment=50&submit
=Search

> <PubChem CID of Ligand>
91936152

> <PubChem SID of Ligand>
104073208

> <ChEMBL ID of Ligand>
CHEMBL211352

> <ZINC ID of Ligand>
ZINC36088731

> <Number of Protein Chains in Target (bigger than 1 implies a multichain complex)>
1

> <BindingDB Target Chain Sequence>
MEMEKEFEQIDKSGSWAAIYQDIRHEASDFPCRVAKLPKNKNRNRYRDVSPFDHSRIKLHQEDNDYINASLIKMEEAQRSYILTQGPLPNTCGHFWEMVWEQKSRGVVMLNRVMEKGSLKCAQYWPQKEEKEMIFEDTNLKLTLISEDIKSYYTVRQLELENLTTQETREILHFHYTTWPDFGVPESPASFLNFLFKVRE
SGSLSPEHGPVVVHCSAGIGRSGTFCLADTCLLLMDKRKDPSSVDIKKVLLEMRKFRMGLIQTADQLRFSYLAVIEGAKFIMGDSSVQDQWKELSHEDLEPPPEHIPPPPRPPKRILEPHNGKCREFFPNHQWVKEETQEDKDCPIKEEKGSPLNAAPYGIESMSQDTEVRSRVVGGSLRGAQAASPAKGEPSLPEKDED
HALSYWKPFLVNMCVATVLTAGAYLCYRFLFNSNT

> <PDB ID(s) of Target Chain>
1BZJ,1G7G,1GFY,1JF7,1KAK,1KAV,1LQF,1NL9,1NNY,1NO6,1NZ7,1OEM,1OEO,1OES,1OET,1OEU,1OEV,1ONY,1ONZ,1PH0,1PXH,1PYN,1Q1M,1Q6J,1Q6M,1Q6N,1Q6P,1Q6S,1Q6T,1QXK,1SUG,1T48,1T49,1T4J,1WAX,1XBO,2AZR,2B07,2BGD,2BGE,
2CM2,2CM3,2CM7,2CM8,2CMA,2CMB,2CMC,2CNE,2CNF,2CNG,2CNH,2CNI,2F6T,2F6V,2F6W,2F6Y,2F6Z,2F70,2F71,2FJN,2H4G,2H4K,2HB1,2HNP,2HNQ,2QBP,2QBQ,2QBR,2QBS,2VEU,2VEV,2VEW,2VEX,2VEY,2ZMM,2ZN7,3A5J,3CWE,3D9C,3EAX,
3EB1,3EU0,3I7Z,3I80,3SME,4BJO,4I8N,4QBW,4Y14,5K9V,5K9W,5KA0,5KA1,5T19,6B90,6NTP,6W30,7KEY,7KLX,7LFO,7MN9,7MNA,8DU7,8G65,8G67,8G68,8G69,8G6A,8SKL

> <UniProt (SwissProt) Recommended Name of Target Chain>
Tyrosine-protein phosphatase non-receptor type 1

> <UniProt (SwissProt) Entry Name of Target Chain>
PTN1_HUMAN

> <UniProt (SwissProt) Primary ID of Target Chain>
P18031

> <UniProt (SwissProt) Secondary ID(s) of Target Chain>
Q5TGD8 Q9BQV9 Q9NQQ4

$$$$
Molecule
  SciTegic10242319433D

 66 67  0  0  0  0            999 V2000
   18.7884   -5.2426   -1.2393 O   0  0
   19.1485   -5.8690    0.0951 S   0  0
   19.0595   -4.8250    1.1928 O   0  0
   21.9988   -4.4553   -0.0473 C   0  0
   21.9631   -5.7916   -0.0122 C   0  0
   23.2315   -6.5383   -0.0012 C   0  0
   24.4163   -5.9147   -0.0174 C   0  0
   24.4573   -4.4381   -0.0452 C   0  0
   23.3062   -3.7611   -0.0620 C   0  0
   20.7392   -6.5425    0.0163 N   0  0
   17.9650   -7.1866    0.4690 C   0  0
   20.8135   -3.7153   -0.0673 O   0  0
   21.0568   -2.3066   -0.0983 C   0  0
   19.7053   -1.5668   -0.0962 C   0  0
   25.6057   -6.6650   -0.0120 O   0  0
   25.3168   -8.0784    0.0065 C   0  0
   26.6264   -8.8840   -0.0107 C   0  0
   25.7686   -3.6304   -0.0544 C   0  0
   27.0134   -4.3913   -0.0286 N   0  0
   28.2428   -3.6544   -0.0075 C   0  0
   29.5177   -4.3276   -0.0031 N   0  0
   28.1815   -2.4200   -0.0067 O   0  0
   30.8059   -3.6516   -0.0007 C   0  0
   31.9218   -4.3745   -0.0002 C   0  0
   33.3235   -3.8045   -0.0083 C   0  0
   33.3954   -2.4186    0.0125 C   0  0
   32.1204   -1.6575    0.0063 C   0  0
   30.9214   -2.2251    0.0087 C   0  0
   34.5422   -1.4645    0.0064 O   0  0
   35.9216   -1.8185    0.0135 C   0  0
   34.5626   -4.8497   -0.0072 C   0  0
   34.5284   -6.3242    0.0010 O   0  0
   35.7137   -4.4366   -0.0304 O   0  0
   33.3076   -7.0780    0.0279 C   0  0
   36.7955   -0.5500    0.0028 C   0  0
   23.2056   -7.6277    0.0207 H   0  0
   23.3300   -2.6716   -0.0872 H   0  0
   20.8184   -7.6091   -0.0138 H   0  0
   18.2174   -7.6415    1.4268 H   0  0
   18.0044   -7.9440   -0.3140 H   0  0
   16.9594   -6.7689    0.5195 H   0  0
   21.6344   -2.0158    0.7792 H   0  0
   21.6124   -2.0511   -1.0006 H   0  0
   19.8793   -0.4911   -0.1197 H   0  0
   19.1505   -1.8250    0.8059 H   0  0
   19.1286   -1.8603   -0.9734 H   0  0
   24.7564   -8.3202    0.9096 H   0  0
   24.7229   -8.3367   -0.8702 H   0  0
   26.3982   -9.9497    0.0035 H   0  0
   27.2220   -8.6288    0.8659 H   0  0
   27.1886   -8.6453   -0.9135 H   0  0
   25.7738   -3.0216   -0.9585 H   0  0
   25.7615   -2.9813    0.8213 H   0  0
   27.0086   -5.4613   -0.0256 H   0  0
   29.5163   -5.3976   -0.0014 H   0  0
   31.8192   -5.4597    0.0066 H   0  0
   32.1727   -0.5688   -0.0005 H   0  0
   30.0247   -1.6054    0.0177 H   0  0
   36.1398   -2.3985    0.9102 H   0  0
   36.1443   -2.4167   -0.8700 H   0  0
   33.5378   -8.1434    0.0289 H   0  0
   32.7114   -6.8365   -0.8521 H   0  0
   32.7451   -6.8275    0.9273 H   0  0
   37.8480   -0.8332    0.0084 H   0  0
   36.5766    0.0502    0.8860 H   0  0
   36.5811    0.0320   -0.8936 H   0  0
  2  1  2  0
  3  2  2  0
  4  5  2  0
  5  6  1  0
  6  7  2  0
  7  8  1  0
  8  9  2  0
  9  4  1  0
  5 10  1  0
 10  2  1  0
  2 11  1  0
  4 12  1  0
 12 13  1  0
 13 14  1  0
  7 15  1  0
 15 16  1  0
 16 17  1  0
  8 18  1  0
 18 19  1  0
 19 20  1  0
 20 21  1  0
 20 22  2  0
 21 23  1  0
 23 24  2  0
 24 25  1  0
 25 26  2  0
 26 27  1  0
 27 28  2  0
 28 23  1  0
 26 29  1  0
 29 30  1  0
 25 31  1  0
 31 32  1  0
 31 33  2  0
 32 34  1  0
 30 35  1  0
  6 36  1  0
  9 37  1  0
 10 38  1  0
 11 39  1  0
 11 40  1  0
 11 41  1  0
 13 42  1  0
 13 43  1  0
 14 44  1  0
 14 45  1  0
 14 46  1  0
 16 47  1  0
 16 48  1  0
 17 49  1  0
 17 50  1  0
 17 51  1  0
 18 52  1  0
 18 53  1  0
 19 54  1  0
 21 55  1  0
 24 56  1  0
 27 57  1  0
 28 58  1  0
 30 59  1  0
 30 60  1  0
 34 61  1  0
 34 62  1  0
 34 63  1  0
 35 64  1  0
 35 65  1  0
 35 66  1  0
M  END
> <Name>
Molecule

> <Clean Energy>
35.1108

> <From>
www.bindingDB.org

> <BindingDB Reactant_set_id>
51024539

> <Ligand InChI>
InChI=1S/C23H31N3O8S/c1-6-32-19-10-9-16(12-17(19)22(27)31-4)25-23(28)24-14-15-11-21(34-8-3)18(26-35(5,29)30)13-20(15)33-7-2/h9-13,26H,6-8,14H2,1-5H3,(H2,24,25,28)

> <Ligand InChI Key>
IIZRLNOBXIGZFR-UHFFFAOYSA-N

> <BindingDB MonomerID>
50290909

> <BindingDB Ligand Name>
CHEMBL4164960

> <Target Name>
Tyrosine-protein phosphatase non-receptor type 1

> <Target Source Organism According to Curator or DataSource>
Homo sapiens

> <IC50 (nM)>
19

> <Curation/DataSource>
ChEMBL

> <Article DOI>
10.1016/j.ejmech.2017.12.064

> <BindingDB Entry DOI>
10.7270/Q23B62P2

> <PMID>
29289892

> <Authors>
Du, Y; Zhang, Y; Ling, H; Li, Q; Shen, J

> <Institution>
Qilu University of Technology (Shandong Academy of Sciences)

> <Link to Ligand in BindingDB>
http://www.bindingdb.org/bind/chemsearch/marvin/MolStructure.jsp?monomerid=50290909

> <Link to Ligand-Target Pair in BindingDB>
http://www.bindingdb.org/jsp/dbsearch/PrimarySearch_ki.jsp?energyterm=kJ/mole&tag=pol&polymerid=2622&target=Tyrosine-protein+phosphatase+non-receptor+type+1&column=ki&startPg=0&Increment=50&submit=Sea
rch
http://www.bindingdb.org/jsp/dbsearch/PrimarySearch_ki.jsp?energyterm=kJ/mole&tag=r21&monomerid=50290909&enzyme=Tyrosine-protein+phosphatase+non-receptor+type+1&column=ki&startPg=0&Increment=50&submit
=Search

> <PubChem CID of Ligand>
10388497

> <PubChem SID of Ligand>
104132461

> <ZINC ID of Ligand>
ZINC36189086

> <Number of Protein Chains in Target (bigger than 1 implies a multichain complex)>
1

> <BindingDB Target Chain Sequence>
MEMEKEFEQIDKSGSWAAIYQDIRHEASDFPCRVAKLPKNKNRNRYRDVSPFDHSRIKLHQEDNDYINASLIKMEEAQRSYILTQGPLPNTCGHFWEMVWEQKSRGVVMLNRVMEKGSLKCAQYWPQKEEKEMIFEDTNLKLTLISEDIKSYYTVRQLELENLTTQETREILHFHYTTWPDFGVPESPASFLNFLFKVRE
SGSLSPEHGPVVVHCSAGIGRSGTFCLADTCLLLMDKRKDPSSVDIKKVLLEMRKFRMGLIQTADQLRFSYLAVIEGAKFIMGDSSVQDQWKELSHEDLEPPPEHIPPPPRPPKRILEPHNGKCREFFPNHQWVKEETQEDKDCPIKEEKGSPLNAAPYGIESMSQDTEVRSRVVGGSLRGAQAASPAKGEPSLPEKDED
HALSYWKPFLVNMCVATVLTAGAYLCYRFLFNSNT

> <PDB ID(s) of Target Chain>
1BZJ,1G7G,1GFY,1JF7,1KAK,1KAV,1LQF,1NL9,1NNY,1NO6,1NZ7,1OEM,1OEO,1OES,1OET,1OEU,1OEV,1ONY,1ONZ,1PH0,1PXH,1PYN,1Q1M,1Q6J,1Q6M,1Q6N,1Q6P,1Q6S,1Q6T,1QXK,1SUG,1T48,1T49,1T4J,1WAX,1XBO,2AZR,2B07,2BGD,2BGE,
2CM2,2CM3,2CM7,2CM8,2CMA,2CMB,2CMC,2CNE,2CNF,2CNG,2CNH,2CNI,2F6T,2F6V,2F6W,2F6Y,2F6Z,2F70,2F71,2FJN,2H4G,2H4K,2HB1,2HNP,2HNQ,2QBP,2QBQ,2QBR,2QBS,2VEU,2VEV,2VEW,2VEX,2VEY,2ZMM,2ZN7,3A5J,3CWE,3D9C,3EAX,
3EB1,3EU0,3I7Z,3I80,3SME,4BJO,4I8N,4QBW,4Y14,5K9V,5K9W,5KA0,5KA1,5T19,6B90,6NTP,6W30,7KEY,7KLX,7LFO,7MN9,7MNA,8DU7,8G65,8G67,8G68,8G69,8G6A,8SKL

> <UniProt (SwissProt) Recommended Name of Target Chain>
Tyrosine-protein phosphatase non-receptor type 1

> <UniProt (SwissProt) Entry Name of Target Chain>
PTN1_HUMAN

> <UniProt (SwissProt) Primary ID of Target Chain>
P18031

> <UniProt (SwissProt) Secondary ID(s) of Target Chain>
Q5TGD8 Q9BQV9 Q9NQQ4

$$$$
Molecule
  SciTegic10242319433D

 75 80  0  0  0  0            999 V2000
   -1.4502   -0.8545    0.2712 C   0  0
   -2.6201   -1.8728   -0.2131 N   0  0
   -2.3479   -3.2179   -0.3397 N   0  0
   -2.4374    0.3885    0.6454 C   0  0
   -2.5074    1.5793    0.1223 N   0  0
    5.7656    2.3437   -0.2950 P   0  0
    1.6778   -7.4140    0.8397 P   0  0
    2.6376   -6.3053    0.0135 C   0  0
    5.0942    0.9667    0.3672 C   0  0
   -3.3330   -3.9294   -0.4871 N   0  0
   -4.0771   -1.8247   -0.3749 C   0  0
   -3.6009    2.4223    0.7056 C   0  0
   -3.6184    0.3030    1.8410 S   0  0
   -4.4518   -3.1538   -0.5013 C   0  0
   -4.3123    1.8095    1.6668 C   0  0
   -0.7940    0.4520   -0.3899 C   0  0
   -0.4060   -1.3412   -0.8836 C   0  0
    1.9028   -4.9942   -0.1942 C   0  0
    3.5740    0.9552    0.2987 C   0  0
    1.3422   -6.9431    2.0950 O   0  0
    5.3919    2.4891   -1.6170 O   0  0
   -3.9249    3.8093    0.2821 C   0  0
    3.0246   -6.7983   -1.2157 F   0  0
    5.5410   -0.1027   -0.3892 F   0  0
    3.7798   -6.0696    0.7491 F   0  0
    5.5084    0.7661    1.6654 F   0  0
    0.3832   -7.6803    0.0233 O   0  0
    5.3058    3.5766    0.5170 O   0  0
    7.3097    2.2300   -0.2345 O   0  0
    2.4515   -8.7429    1.0084 O   0  0
    2.2389   -4.1145   -1.3231 C   0  0
    2.8824    1.6149   -0.8022 C   0  0
    0.9153   -4.6530    0.6248 C   0  0
    2.8679    0.2786    1.2056 C   0  0
    0.7698    0.7103   -0.0060 C   0  0
    0.4062   -2.6541   -0.6319 C   0  0
    1.5233   -3.0061   -1.5369 C   0  0
    0.1630   -3.4381    0.4154 C   0  0
    1.5661    1.5058   -0.9462 C   0  0
    1.4016    0.1517    1.0573 C   0  0
   -5.0030   -0.8610   -0.4105 C   0  0
   -5.7032   -3.5717   -0.6230 C   0  0
   -3.0831    4.5075   -0.4891 C   0  0
   -5.1859    4.4299    0.7201 C   0  0
   -6.4265   -1.2638   -0.5485 C   0  0
   -6.7576   -2.5580   -0.6360 C   0  0
   -5.4950    5.6730    0.3540 C   0  0
   -3.4219    5.8902   -0.8777 C   0  0
   -4.5679    6.4413   -0.4785 C   0  0
   -5.1631    2.2120    2.2165 H   0  0
   -0.8638    0.3535   -1.4732 H   0  0
   -1.3689    1.3194   -0.0656 H   0  0
   -0.9795   -1.4853   -1.7993 H   0  0
    0.3150   -0.5367   -1.0287 H   0  0
   -0.1449   -6.7811   -0.0995 H   0  0
    4.2586    3.6461    0.4858 H   0  0
    7.6151    2.1327    0.7654 H   0  0
    2.6958   -9.1287    0.0629 H   0  0
    3.0689   -4.3655   -1.9836 H   0  0
    3.4536    2.2064   -1.5177 H   0  0
    0.6688   -5.2990    1.4675 H   0  0
    3.3713   -0.1808    2.0563 H   0  0
    1.7632   -2.3591   -2.3807 H   0  0
   -0.6155   -3.1593    1.1257 H   0  0
    1.0716    2.0142   -1.7739 H   0  0
    0.8258   -0.3930    1.8055 H   0  0
   -4.7218    0.1897   -0.3403 H   0  0
   -5.9385   -4.6325   -0.7103 H   0  0
   -2.1508    4.0566   -0.8290 H   0  0
   -5.8738    3.8665    1.3506 H   0  0
   -7.2052   -0.5016   -0.5787 H   0  0
   -7.8037   -2.8537   -0.7161 H   0  0
   -6.4373    6.1175    0.6741 H   0  0
   -2.7308    6.4642   -1.4948 H   0  0
   -4.8143    7.4619   -0.7713 H   0  0
  2  1  1  0
  3  2  1  0
  4  1  1  0
  5  4  2  0
  6  9  1  0
  7  8  1  0
  8 18  1  0
  9 19  1  0
 10  3  2  0
 11  2  1  0
 12  5  1  0
 13  4  1  0
 14 11  1  0
 15 13  1  0
 16  1  1  0
 17  1  1  0
 18 33  2  0
 19 34  2  0
 20  7  2  0
 21  6  2  0
 22 12  1  0
 23  8  1  0
 24  9  1  0
 25  8  1  0
 26  9  1  0
 27  7  1  0
 28  6  1  0
 29  6  1  0
 30  7  1  0
 31 37  2  0
 32 39  2  0
 33 38  1  0
 34 40  1  0
 35 16  1  0
 36 17  1  0
 37 36  1  0
 38 36  2  0
 39 35  1  0
 40 35  2  0
 41 11  2  0
 42 14  2  0
 43 22  2  0
 44 22  1  0
 45 41  1  0
 46 45  2  0
 47 44  2  0
 48 43  1  0
 49 47  1  0
 15 12  2  0
 10 14  1  0
 18 31  1  0
 19 32  1  0
 42 46  1  0
 49 48  2  0
 15 50  1  0
 16 51  1  0
 16 52  1  0
 17 53  1  0
 17 54  1  0
 27 55  1  0
 28 56  1  0
 29 57  1  0
 30 58  1  0
 31 59  1  0
 32 60  1  0
 33 61  1  0
 34 62  1  0
 37 63  1  0
 38 64  1  0
 39 65  1  0
 40 66  1  0
 41 67  1  0
 42 68  1  0
 43 69  1  0
 44 70  1  0
 45 71  1  0
 46 72  1  0
 47 73  1  0
 48 74  1  0
 49 75  1  0
M  END
> <Name>
Molecule

> <Clean Energy>
220.004

> <From>
www.bindingDB.org

> <BindingDB Reactant_set_id>
50026900

> <Ligand InChI>
InChI=1S/C32H26F4N4O6P2S/c33-31(34,47(41,42)43)24-14-10-21(11-15-24)18-30(40-28-9-5-4-8-26(28)38-39-40,29-37-27(20-49-29)23-6-2-1-3-7-23)19-22-12-16-25(17-13-22)32(35,36)48(44,45)46/h1-17,20H,18-19H2,
(H2,41,42,43)(H2,44,45,46)

> <Ligand InChI Key>
LUQYNJZVPGUNOW-UHFFFAOYSA-N

> <BindingDB MonomerID>
50142329

> <BindingDB Ligand Name>
({4-[2-Benzotriazol-1-yl-3-[4-(difluoro-phosphono-methyl)-phenyl]-2-(4-phenyl-thiazol-2-yl)-propyl]-phenyl}-difluoro-methyl)-phosphonic acid::CHEMBL9473

> <Target Name>
Tyrosine-protein phosphatase non-receptor type 1

> <Target Source Organism According to Curator or DataSource>
Homo sapiens

> <IC50 (nM)>
19

> <Curation/DataSource>
ChEMBL

> <Article DOI>
10.1016/j.bmcl.2003.11.076

> <BindingDB Entry DOI>
10.7270/Q24M9404

> <PMID>
15013020

> <Authors>
Lau, CK; Bayly, CI; Gauthier, JY; Li, CS; Therien, M; Asante-Appiah, E; Cromlish, W; Boie, Y; Forghani, F; Desmarais, S; Wang, Q; Skorey, K; Waddleton, D; Payette, P; Ramachandran, C; Kennedy, BP; Sca
pin, G

> <Institution>
Merck Frosst Centre for Therapeutic Research

> <Link to Ligand in BindingDB>
http://www.bindingdb.org/bind/chemsearch/marvin/MolStructure.jsp?monomerid=50142329

> <Link to Ligand-Target Pair in BindingDB>
http://www.bindingdb.org/jsp/dbsearch/PrimarySearch_ki.jsp?energyterm=kJ/mole&tag=pol&polymerid=2622&target=Tyrosine-protein+phosphatase+non-receptor+type+1&column=ki&startPg=0&Increment=50&submit=Sea
rch
http://www.bindingdb.org/jsp/dbsearch/PrimarySearch_ki.jsp?energyterm=kJ/mole&tag=r21&monomerid=50142329&enzyme=Tyrosine-protein+phosphatase+non-receptor+type+1&column=ki&startPg=0&Increment=50&submit
=Search

> <PubChem CID of Ligand>
44265887

> <PubChem SID of Ligand>
104031720

> <ChEMBL ID of Ligand>
CHEMBL9473

> <ZINC ID of Ligand>
ZINC95546417

> <Number of Protein Chains in Target (bigger than 1 implies a multichain complex)>
1

> <BindingDB Target Chain Sequence>
MEMEKEFEQIDKSGSWAAIYQDIRHEASDFPCRVAKLPKNKNRNRYRDVSPFDHSRIKLHQEDNDYINASLIKMEEAQRSYILTQGPLPNTCGHFWEMVWEQKSRGVVMLNRVMEKGSLKCAQYWPQKEEKEMIFEDTNLKLTLISEDIKSYYTVRQLELENLTTQETREILHFHYTTWPDFGVPESPASFLNFLFKVRE
SGSLSPEHGPVVVHCSAGIGRSGTFCLADTCLLLMDKRKDPSSVDIKKVLLEMRKFRMGLIQTADQLRFSYLAVIEGAKFIMGDSSVQDQWKELSHEDLEPPPEHIPPPPRPPKRILEPHNGKCREFFPNHQWVKEETQEDKDCPIKEEKGSPLNAAPYGIESMSQDTEVRSRVVGGSLRGAQAASPAKGEPSLPEKDED
HALSYWKPFLVNMCVATVLTAGAYLCYRFLFNSNT

> <PDB ID(s) of Target Chain>
1BZJ,1G7G,1GFY,1JF7,1KAK,1KAV,1LQF,1NL9,1NNY,1NO6,1NZ7,1OEM,1OEO,1OES,1OET,1OEU,1OEV,1ONY,1ONZ,1PH0,1PXH,1PYN,1Q1M,1Q6J,1Q6M,1Q6N,1Q6P,1Q6S,1Q6T,1QXK,1SUG,1T48,1T49,1T4J,1WAX,1XBO,2AZR,2B07,2BGD,2BGE,
2CM2,2CM3,2CM7,2CM8,2CMA,2CMB,2CMC,2CNE,2CNF,2CNG,2CNH,2CNI,2F6T,2F6V,2F6W,2F6Y,2F6Z,2F70,2F71,2FJN,2H4G,2H4K,2HB1,2HNP,2HNQ,2QBP,2QBQ,2QBR,2QBS,2VEU,2VEV,2VEW,2VEX,2VEY,2ZMM,2ZN7,3A5J,3CWE,3D9C,3EAX,
3EB1,3EU0,3I7Z,3I80,3SME,4BJO,4I8N,4QBW,4Y14,5K9V,5K9W,5KA0,5KA1,5T19,6B90,6NTP,6W30,7KEY,7KLX,7LFO,7MN9,7MNA,8DU7,8G65,8G67,8G68,8G69,8G6A,8SKL

> <UniProt (SwissProt) Recommended Name of Target Chain>
Tyrosine-protein phosphatase non-receptor type 1

> <UniProt (SwissProt) Entry Name of Target Chain>
PTN1_HUMAN

> <UniProt (SwissProt) Primary ID of Target Chain>
P18031

> <UniProt (SwissProt) Secondary ID(s) of Target Chain>
Q5TGD8 Q9BQV9 Q9NQQ4

$$$$
Molecule
  SciTegic10242319433D

 76 81  0  0  0  0            999 V2000
   -1.8212    3.2828    0.3475 C   0  0
   -3.0280    2.6822    0.6617 C   0  0
   -3.1274    1.3470    1.0263 C   0  0
   -1.9235    0.6227    1.1117 C   0  0
   -0.6903    1.2060    0.7748 C   0  0
   -0.6550    2.5374    0.3814 C   0  0
    0.5078    0.4714    0.7550 C   0  0
    1.7093    1.0540    0.3230 C   0  0
    1.7085    2.4022   -0.0494 C   0  0
    0.5308    3.1328   -0.0099 C   0  0
    3.2808    3.3082   -0.6613 Br  0  0
    3.0535    0.2385    0.1861 C   0  0
    3.6456    0.5760   -1.0112 F   0  0
    2.9407   -1.4325    0.1939 P   0  0
    3.9097    0.6378    1.1891 F   0  0
   -4.5975    0.6354    1.2905 C   0  0
   -5.8904    0.7362    0.1537 C   0  0  1  0  0  0
   -7.2180   -0.0958    0.7186 C   0  0
   -6.2579    2.2924   -0.0971 N   0  0
   -5.3386    3.1243   -0.3458 N   0  0
   -5.7276    4.3303   -0.4901 N   0  0
   -7.0236    4.3103   -0.3472 C   0  0
   -7.4125    3.0133   -0.1111 C   0  0
   -8.7509    2.7340    0.0538 C   0  0
   -9.6786    3.7818   -0.0074 C   0  0
   -9.2628    5.0945   -0.2319 C   0  0
   -7.9164    5.3775   -0.4113 C   0  0
   -7.5614   -1.5523    0.6330 C   0  0
   -8.1604    0.5472    1.1526 O   0  0
   -8.8421   -1.8831    0.1986 C   0  0
   -9.2390   -3.2118    0.0903 C   0  0
   -8.3608   -4.2304    0.4367 C   0  0
   -7.0984   -3.9085    0.9157 C   0  0
   -6.7140   -2.5765    1.0211 C   0  0
    4.3635   -2.0173   -0.0121 O   0  0
    2.1698   -1.8584   -0.8595 O   0  0
    2.3556   -1.9605    1.5210 O   0  0
   -5.2366    0.1652   -1.2860 C   0  0
   -4.2280   -1.0548   -1.2269 C   0  0
   -4.4961   -2.3236   -0.7475 C   0  0
   -3.4959   -3.2609   -0.5074 C   0  0
   -2.1689   -2.9487   -0.7668 C   0  0
   -1.9017   -1.7065   -1.3569 C   0  0
   -2.9177   -0.7860   -1.5706 C   0  0
   -1.0490   -3.9477   -0.3150 C   0  0
    0.1872   -3.5967   -0.7515 F   0  0
   -1.3362   -5.6876   -0.7043 S   0  0
   -1.0427   -3.9040    1.0740 F   0  0
   -0.0032   -6.5950   -0.0276 N   0  0
   -2.6265   -6.1669   -0.0686 O   0  0
   -0.1928   -1.1110   -1.8430 Br  0  0
   -1.7891    4.3376    0.0746 H   0  0
   -3.9370    3.2824    0.6212 H   0  0
   -1.9484   -0.4142    1.4469 H   0  0
    0.5038   -0.5687    1.0808 H   0  0
    0.5393    4.1862   -0.2899 H   0  0
   -4.3991   -0.4272    1.4303 H   0  0
   -4.9772    1.0600    2.2198 H   0  0
   -9.0839    1.7112    0.2296 H   0  0
  -10.7397    3.5687    0.1221 H   0  0
   -9.9971    5.8994   -0.2664 H   0  0
   -7.5709    6.3948   -0.5951 H   0  0
   -9.5434   -1.0898   -0.0601 H   0  0
  -10.2401   -3.4537   -0.2666 H   0  0
   -8.6602   -5.2734    0.3333 H   0  0
   -6.4085   -4.6998    1.2091 H   0  0
   -5.7276   -2.3340    1.4165 H   0  0
    4.7487   -1.6867   -0.9313 H   0  0
    2.9742   -1.6683    2.3176 H   0  0
   -6.0701   -0.1369   -1.9201 H   0  0
   -4.7082    0.9972   -1.7515 H   0  0
   -5.5316   -2.6007   -0.5498 H   0  0
   -3.7557   -4.2438   -0.1143 H   0  0
   -2.6749    0.1758   -2.0223 H   0  0
    0.0287   -6.4466    1.0316 H   0  0
    0.9149   -6.2587   -0.4623 H   0  0
  1  2  4  0
  1  6  4  0
  2  3  4  0
  3  4  4  0
  4  5  4  0
  5  7  4  0
  6  5  4  0
  6 10  4  0
  7  8  4  0
  8  9  4  0
  9 10  4  0
  9 11  1  0
  8 12  1  0
 12 13  1  0
 12 14  1  0
 12 15  1  0
  3 16  1  0
 16 17  1  0
 17 18  1  0
 17 19  1  0
 19 20  4  0
 19 23  4  0
 20 21  4  0
 21 22  4  0
 22 27  4  0
 22 23  4  0
 23 24  4  0
 24 25  4  0
 25 26  4  0
 26 27  4  0
 18 28  1  0
 18 29  2  0
 28 30  4  0
 28 34  4  0
 30 31  4  0
 31 32  4  0
 32 33  4  0
 33 34  4  0
 14 35  1  0
 14 36  2  0
 14 37  1  0
 17 38  1  0
 38 39  1  0
 39 40  4  0
 39 44  4  0
 40 41  4  0
 41 42  4  0
 42 43  4  0
 43 44  4  0
 42 45  1  0
 45 46  1  0
 45 47  1  0
 45 48  1  0
 47 49  1  0
 47 50  2  0
 43 51  1  0
  1 52  1  0
  2 53  1  0
  4 54  1  0
  7 55  1  0
 10 56  1  0
 16 57  1  0
 16 58  1  0
 24 59  1  0
 25 60  1  0
 26 61  1  0
 27 62  1  0
 30 63  1  0
 31 64  1  0
 32 65  1  0
 33 66  1  0
 34 67  1  0
 35 68  1  0
 37 69  1  0
 38 70  1  0
 38 71  1  0
 40 72  1  0
 41 73  1  0
 44 74  1  0
 49 75  1  0
 49 76  1  0
M  END
> <Name>
Molecule

> <Clean Energy>
157.221

> <From>
www.bindingDB.org

> <BindingDB Reactant_set_id>
253398

> <Ligand InChI>
InChI=1S/C34H25Br2F4N4O5PS/c35-27-15-21(11-13-25(27)34(39,40)51(41)49)19-32(31(45)22-6-2-1-3-7-22,44-30-9-5-4-8-29(30)42-43-44)18-20-10-12-23-17-28(36)26(16-24(23)14-20)33(37,38)50(46,47)48/h1-17H,18-
19,41H2,(H2,46,47,48)

> <Ligand InChI Key>
CWUUFAFEGKOAFE-UHFFFAOYSA-N

> <BindingDB MonomerID>
124211

> <BindingDB Ligand Name>
({7-[2-({4-[(aminosulfinyl)difluoromethyl]-3-bromophenyl}methyl)-2-(1H-1,2,3-benzotriazol-1-yl)-3-oxo-3-phenylpropyl]-3-bromonaphthalen-2-yl}difluoromethyl)phosphonic acid (10d)

> <Target Name>
Tyrosine-protein phosphatase non-receptor type 1

> <Target Source Organism According to Curator or DataSource>
Homo sapiens

> <IC50 (nM)>
19

> <Curation/DataSource>
Curated from the literature by BindingDB

> <Article DOI>
10.1002/cmdc.201100077

> <BindingDB Entry DOI>
10.7270/Q2XW4HGZ

> <PMID>
21506278

> <PubChem AID>
aid1800514

> <Authors>
Patel, D; Jain, M; Shah, SR; Bahekar, R; Jadav, P; Darji, B; Siriki, Y; Bandyopadhyay, D; Joharapurkar, A; Kshirsagar, S; Patel, H; Shaikh, M; Sairam, KV; Patel, P

> <Institution>
Zydus Research Centre

> <Link to Ligand in BindingDB>
http://www.bindingdb.org/bind/chemsearch/marvin/MolStructure.jsp?monomerid=124211

> <Link to Ligand-Target Pair in BindingDB>
http://www.bindingdb.org/jsp/dbsearch/PrimarySearch_ki.jsp?energyterm=kJ/mole&tag=pol&polymerid=2622&target=Tyrosine-protein+phosphatase+non-receptor+type+1&column=ki&startPg=0&Increment=50&submit=Sea
rch
http://www.bindingdb.org/jsp/dbsearch/PrimarySearch_ki.jsp?energyterm=kJ/mole&tag=r21&monomerid=124211&enzyme=Tyrosine-protein+phosphatase+non-receptor+type+1&column=ki&startPg=0&Increment=50&submit=S
earch

> <PubChem CID of Ligand>
86766285

> <PubChem SID of Ligand>
225150603

> <Number of Protein Chains in Target (bigger than 1 implies a multichain complex)>
1

> <BindingDB Target Chain Sequence>
MEMEKEFEQIDKSGSWAAIYQDIRHEASDFPCRVAKLPKNKNRNRYRDVSPFDHSRIKLHQEDNDYINASLIKMEEAQRSYILTQGPLPNTCGHFWEMVWEQKSRGVVMLNRVMEKGSLKCAQYWPQKEEKEMIFEDTNLKLTLISEDIKSYYTVRQLELENLTTQETREILHFHYTTWPDFGVPESPASFLNFLFKVRE
SGSLSPEHGPVVVHCSAGIGRSGTFCLADTCLLLMDKRKDPSSVDIKKVLLEMRKFRMGLIQTADQLRFSYLAVIEGAKFIMGDSSVQDQWKELSHEDLEPPPEHIPPPPRPPKRILEPHNGKCREFFPNHQWVKEETQEDKDCPIKEEKGSPLNAAPYGIESMSQDTEVRSRVVGGSLRGAQAASPAKGEPSLPEKDED
HALSYWKPFLVNMCVATVLTAGAYLCYRFLFNSNT

> <PDB ID(s) of Target Chain>
1BZJ,1G7G,1GFY,1JF7,1KAK,1KAV,1LQF,1NL9,1NNY,1NO6,1NZ7,1OEM,1OEO,1OES,1OET,1OEU,1OEV,1ONY,1ONZ,1PH0,1PXH,1PYN,1Q1M,1Q6J,1Q6M,1Q6N,1Q6P,1Q6S,1Q6T,1QXK,1SUG,1T48,1T49,1T4J,1WAX,1XBO,2AZR,2B07,2BGD,2BGE,
2CM2,2CM3,2CM7,2CM8,2CMA,2CMB,2CMC,2CNE,2CNF,2CNG,2CNH,2CNI,2F6T,2F6V,2F6W,2F6Y,2F6Z,2F70,2F71,2FJN,2H4G,2H4K,2HB1,2HNP,2HNQ,2QBP,2QBQ,2QBR,2QBS,2VEU,2VEV,2VEW,2VEX,2VEY,2ZMM,2ZN7,3A5J,3CWE,3D9C,3EAX,
3EB1,3EU0,3I7Z,3I80,3SME,4BJO,4I8N,4QBW,4Y14,5K9V,5K9W,5KA0,5KA1,5T19,6B90,6NTP,6W30,7KEY,7KLX,7LFO,7MN9,7MNA,8DU7,8G65,8G67,8G68,8G69,8G6A,8SKL

> <UniProt (SwissProt) Recommended Name of Target Chain>
Tyrosine-protein phosphatase non-receptor type 1

> <UniProt (SwissProt) Entry Name of Target Chain>
PTN1_HUMAN

> <UniProt (SwissProt) Primary ID of Target Chain>
P18031

> <UniProt (SwissProt) Secondary ID(s) of Target Chain>
Q5TGD8 Q9BQV9 Q9NQQ4

$$$$
Molecule
  SciTegic10242319433D

124127  0  0  0  0            999 V2000
   -4.4012   -9.4781    1.7766 F   0  0
   -4.6841   -5.7547    0.5222 C   0  0
   -4.9877   -7.1383    0.6532 C   0  0
   -4.2959   -8.0974    0.0560 C   0  0
   -3.0606   -7.6868   -0.6988 C   0  0
   -2.7293   -6.3741   -0.7768 C   0  0
   -3.6127   -5.3493   -0.1319 C   0  0
   -3.4493   -3.8353   -0.2176 C   0  0
   -2.1057   -3.1703   -0.4274 C   0  0
   -2.1375   -2.0349   -0.9183 O   0  0
   -0.9229   -3.7010   -0.0488 N   0  0
    0.3115   -2.9078   -0.2609 C   0  0  2  0  0  0
    1.5980   -3.6732    0.1388 C   0  0
    2.7965   -3.0862   -0.0370 N   0  0
    1.5119   -4.8128    0.6098 O   0  0
    4.1203   -3.6607    0.2730 C   0  0  2  0  0  0
    5.1107   -2.5828   -0.1118 C   0  0
    6.3306   -2.8978   -0.7071 N   0  0
    4.7800   -1.3961   -0.0020 O   0  0
   -4.6942   -9.5799    0.4420 C   0  0
   -6.4167  -10.1073    0.5443 P   0  0  2  0  0  0
   -3.8590  -10.5480   -0.0892 F   0  0
   -7.4323   -8.9346    0.9158 O   0  0
   -6.4129  -11.0257    1.5737 O   0  0
   -7.1591  -10.9661   -0.6424 N   0  0
    0.2215   -1.5409    0.5240 C   0  0
    1.3206   -0.5627    0.1659 C   0  0
    2.1161   -0.8160   -0.7452 O   0  0
    1.3484    0.6909    0.7689 O   0  0
    4.3749   -5.0031   -0.4996 C   0  0
    5.7209   -5.7831   -0.3374 C   0  0
    5.9532   -6.7173   -1.2499 C   0  0
    8.0813   -7.3791   -0.2765 C   0  0
    7.8696   -6.3272    0.7708 C   0  0
    6.7502   -5.5664    0.7424 C   0  0
    9.3319   -8.3239   -0.3753 C   0  0
    9.1336   -9.8998    0.3723 P   0  0  1  0  0  0
    9.5041   -8.5764   -1.7182 F   0  0
   10.4484   -7.7135    0.1647 F   0  0
    7.8165  -10.6842   -0.1347 N   0  0
   10.2842  -10.9283   -0.0250 O   0  0
    9.0609   -9.7880    1.7456 O   0  0
   11.6380  -10.7339    0.4179 C   0  0
   12.3032  -12.0954    0.1751 C   0  0
   11.6202  -13.1746   -0.2129 C   0  0
   12.5733  -14.2670   -0.3173 C   0  0
   13.7621  -13.7486    0.0196 C   0  0
   13.6344  -12.4108    0.3295 O   0  0
   14.9428  -14.5007    0.0409 N   0  3
   15.9666  -13.9777    0.3233 O   0  0
   14.9242  -15.7933   -0.2504 O   0  5
    6.5989  -10.1784    0.5224 C   0  0
    7.9338  -12.1111    0.2030 C   0  0
    7.1587   -7.5198   -1.2259 C   0  0
    5.3558  -10.7773   -0.1385 C   0  0
    4.1240  -10.0469    0.4099 C   0  0
    2.8734  -10.5221   -0.3411 C   0  0
    1.4751   -9.6019    0.2198 Cl  0  0
   -7.7448   -8.0664   -0.2577 C   0  0
   -8.8979   -7.1918    0.0132 C   0  0
   -8.9710   -5.9314   -0.3529 C   0  0
  -10.2284   -5.4785    0.1053 C   0  0
  -10.8833   -6.4997    0.7265 C   0  0
  -10.0365   -7.5793    0.6705 O   0  0
  -10.7505   -4.2046   -0.0231 N   0  3
  -11.8040   -3.9352    0.3499 O   0  0
   -9.9657   -3.2677   -0.5740 O   0  5
   -8.5885  -11.1586   -0.1727 C   0  0
   -6.6236  -12.3728   -0.5782 C   0  0
   -7.6741  -13.3609   -1.2179 C   0  0
   -7.7330  -14.6983   -0.4108 C   0  0
   -8.9781  -15.5149   -0.8498 C   0  0
   -9.1441  -16.9678    0.1519 Cl  0  0
   -5.3488   -5.0162    0.9705 H   0  0
   -5.8340   -7.4244    1.2778 H   0  0
   -2.4361   -8.4396   -1.1797 H   0  0
   -1.8268   -6.0664   -1.3048 H   0  0
   -4.0799   -3.5098   -1.0449 H   0  0
   -3.8413   -3.4358    0.7177 H   0  0
   -0.8777   -4.6736    0.3950 H   0  0
    0.3793   -2.6766   -1.3239 H   0  0
    2.7887   -2.0972   -0.4451 H   0  0
    4.1893   -3.8452    1.3450 H   0  0
    6.9696   -2.1169   -1.0632 H   0  0
    6.6283   -3.9205   -0.8081 H   0  0
   -0.7390   -1.0772    0.2992 H   0  0
    0.2826   -1.7521    1.5916 H   0  0
    0.4618    1.2072    0.5452 H   0  0
    3.5818   -5.6882   -0.2000 H   0  0
    4.2758   -4.7734   -1.5605 H   0  0
    5.2185   -6.8852   -2.0374 H   0  0
    8.6143   -6.1756    1.5522 H   0  0
    6.5933   -4.7980    1.4995 H   0  0
   12.1282   -9.9533   -0.1639 H   0  0
   11.6662  -10.4714    1.4755 H   0  0
   10.5501  -13.2268   -0.4135 H   0  0
   12.3640  -15.2961   -0.6096 H   0  0
    6.6161  -10.4569    1.5761 H   0  0
    6.5663   -9.0925    0.4335 H   0  0
    7.0445  -12.6403   -0.1394 H   0  0
    8.0290  -12.2227    1.2831 H   0  0
    8.8148  -12.5291   -0.2841 H   0  0
    7.3153   -8.2616   -2.0090 H   0  0
    5.4125  -10.6453   -1.2190 H   0  0
    5.2893  -11.8398    0.0952 H   0  0
    4.0149  -10.2652    1.4722 H   0  0
    4.2459   -8.9728    0.2698 H   0  0
    3.0086  -10.3637   -1.4111 H   0  0
    2.7132  -11.5827   -0.1477 H   0  0
   -6.8758   -7.4479   -0.4825 H   0  0
   -7.9732   -8.6987   -1.1157 H   0  0
   -8.2202   -5.3569   -0.8954 H   0  0
  -11.8758   -6.4662    1.1757 H   0  0
   -9.1436  -11.7261   -0.9196 H   0  0
   -9.0596  -10.1856   -0.0326 H   0  0
   -8.5910  -11.7024    0.7719 H   0  0
   -5.6859  -12.4308   -1.1309 H   0  0
   -6.4505  -12.6492    0.4619 H   0  0
   -8.6585  -12.8928   -1.2079 H   0  0
   -7.3839  -13.5756   -2.2464 H   0  0
   -6.8312  -15.2791   -0.6045 H   0  0
   -7.8013  -14.4767    0.6543 H   0  0
   -9.8699  -14.8980   -0.7392 H   0  0
   -8.8659  -15.8085   -1.8934 H   0  0
 17 18  1  0
 33 36  1  0
 36 37  1  0
 17 19  2  0
 36 38  1  0
  9 10  2  0
 36 39  1  0
  4 20  1  0
 37 40  1  0
  5  6  2  0
 37 41  1  0
 20 21  1  0
 37 42  2  0
 20  1  1  0
 41 43  1  0
  9 11  1  0
 43 44  1  0
 44 45  2  0
 20 22  1  0
  3  4  2  0
 21 23  1  0
 12 11  1  0
 45 46  1  0
 46 47  2  0
 47 48  1  0
 48 44  1  0
 21 24  2  0
  6  7  1  0
 21 25  1  0
 49 50  2  0
 49 51  1  0
 47 49  1  0
 12 13  1  0
 40 52  1  0
 12 26  1  0
 40 53  1  0
  7  2  2  0
 26 27  1  0
 52 55  1  0
 13 14  1  0
 55 56  1  0
  2  3  1  0
 56 57  1  0
 27 28  2  0
 57 58  1  0
 27 29  1  0
 23 59  1  0
 13 15  2  0
 59 60  1  0
 60 61  2  0
 16 30  1  0
  7  8  1  0
 30 31  1  0
 16 14  1  0
 61 62  1  0
 62 63  2  0
 63 64  1  0
 64 60  1  0
 31 32  2  0
 32 54  1  0
  4  5  1  0
 65 66  2  0
 65 67  1  0
 62 65  1  0
 54 33  2  0
 25 68  1  0
 16 17  1  0
 25 69  1  0
 33 34  1  0
 69 70  1  0
  8  9  1  0
 70 71  1  0
 34 35  2  0
 71 72  1  0
 35 31  1  0
 72 73  1  0
  2 74  1  0
  3 75  1  0
  5 76  1  0
  6 77  1  0
  8 78  1  0
  8 79  1  0
 11 80  1  0
 12 81  1  0
 14 82  1  0
 16 83  1  0
 18 84  1  0
 18 85  1  0
 26 86  1  0
 26 87  1  0
 29 88  1  0
 30 89  1  0
 30 90  1  0
 32 91  1  0
 34 92  1  0
 35 93  1  0
 43 94  1  0
 43 95  1  0
 45 96  1  0
 46 97  1  0
 52 98  1  0
 52 99  1  0
 53100  1  0
 53101  1  0
 53102  1  0
 54103  1  0
 55104  1  0
 55105  1  0
 56106  1  0
 56107  1  0
 57108  1  0
 57109  1  0
 59110  1  0
 59111  1  0
 61112  1  0
 63113  1  0
 68114  1  0
 68115  1  0
 68116  1  0
 69117  1  0
 69118  1  0
 70119  1  0
 70120  1  0
 71121  1  0
 71122  1  0
 72123  1  0
 72124  1  0
M  CHG  4  49   1  51  -1  65   1  67  -1
M  END
> <Name>
Molecule

> <Clean Energy>
174.144

> <From>
www.bindingDB.org

> <BindingDB Reactant_set_id>
50635416

> <Ligand InChI>
InChI=1S/C43H51Cl2F4N7O15P2/c1-53(19-5-3-17-44)72(66,69-26-33-15-16-38(71-33)56(64)65)42(46,47)30-11-7-28(8-12-30)21-35(40(50)60)52-41(61)36(24-39(58)59)51-37(57)22-29-9-13-31(14-10-29)43(48,49)73(67,
54(2)20-6-4-18-45)70-27-34-23-32(25-68-34)55(62)63/h7-16,23,25,35-36H,3-6,17-22,24,26-27H2,1-2H3,(H2,50,60)(H,51,57)(H,52,61)(H,58,59)/t35-,36-,72?,73?/m0/s1

> <Ligand InChI Key>
YFIPJENASDLGOC-PQFSHAOUSA-N

> <BindingDB MonomerID>
50341988

> <BindingDB Ligand Name>
(3S)-4-((2S)-1-amino-3-(4-((((4-chlorobutyl)(methyl)amino)((5-nitrofuran-2-yl)methoxy)phosphoryl)difluoromethyl)phenyl)-1-oxopropan-2-ylamino)-3-(2-(4-((((4-chlorobutyl)(methyl)amino)((4-nitrofuran-2-
yl)methoxy)phosphoryl)difluoromethyl)phenyl)acetamido)-4-oxobutanoic acid::CHEMBL1765346

> <Target Name>
Tyrosine-protein phosphatase non-receptor type 1

> <Target Source Organism According to Curator or DataSource>
Homo sapiens

> <IC50 (nM)>
20

> <Curation/DataSource>
ChEMBL

> <Article DOI>
10.1016/j.bmc.2011.02.047

> <BindingDB Entry DOI>
10.7270/Q2BR8SHK

> <PMID>
21420867

> <Authors>
Vintonyak, VV; Waldmann, H; Rauh, D

> <Institution>
Max Planck Institute of Molecular Physiology

> <Link to Ligand in BindingDB>
http://www.bindingdb.org/bind/chemsearch/marvin/MolStructure.jsp?monomerid=50341988

> <Link to Ligand-Target Pair in BindingDB>
http://www.bindingdb.org/jsp/dbsearch/PrimarySearch_ki.jsp?energyterm=kJ/mole&tag=pol&polymerid=2622&target=Tyrosine-protein+phosphatase+non-receptor+type+1&column=ki&startPg=0&Increment=50&submit=Sea
rch
http://www.bindingdb.org/jsp/dbsearch/PrimarySearch_ki.jsp?energyterm=kJ/mole&tag=r21&monomerid=50341988&enzyme=Tyrosine-protein+phosphatase+non-receptor+type+1&column=ki&startPg=0&Increment=50&submit
=Search

> <PubChem CID of Ligand>
54582253

> <PubChem SID of Ligand>
131344924

> <ChEMBL ID of Ligand>
CHEMBL1765346

> <Number of Protein Chains in Target (bigger than 1 implies a multichain complex)>
1

> <BindingDB Target Chain Sequence>
MEMEKEFEQIDKSGSWAAIYQDIRHEASDFPCRVAKLPKNKNRNRYRDVSPFDHSRIKLHQEDNDYINASLIKMEEAQRSYILTQGPLPNTCGHFWEMVWEQKSRGVVMLNRVMEKGSLKCAQYWPQKEEKEMIFEDTNLKLTLISEDIKSYYTVRQLELENLTTQETREILHFHYTTWPDFGVPESPASFLNFLFKVRE
SGSLSPEHGPVVVHCSAGIGRSGTFCLADTCLLLMDKRKDPSSVDIKKVLLEMRKFRMGLIQTADQLRFSYLAVIEGAKFIMGDSSVQDQWKELSHEDLEPPPEHIPPPPRPPKRILEPHNGKCREFFPNHQWVKEETQEDKDCPIKEEKGSPLNAAPYGIESMSQDTEVRSRVVGGSLRGAQAASPAKGEPSLPEKDED
HALSYWKPFLVNMCVATVLTAGAYLCYRFLFNSNT

> <PDB ID(s) of Target Chain>
1BZJ,1G7G,1GFY,1JF7,1KAK,1KAV,1LQF,1NL9,1NNY,1NO6,1NZ7,1OEM,1OEO,1OES,1OET,1OEU,1OEV,1ONY,1ONZ,1PH0,1PXH,1PYN,1Q1M,1Q6J,1Q6M,1Q6N,1Q6P,1Q6S,1Q6T,1QXK,1SUG,1T48,1T49,1T4J,1WAX,1XBO,2AZR,2B07,2BGD,2BGE,
2CM2,2CM3,2CM7,2CM8,2CMA,2CMB,2CMC,2CNE,2CNF,2CNG,2CNH,2CNI,2F6T,2F6V,2F6W,2F6Y,2F6Z,2F70,2F71,2FJN,2H4G,2H4K,2HB1,2HNP,2HNQ,2QBP,2QBQ,2QBR,2QBS,2VEU,2VEV,2VEW,2VEX,2VEY,2ZMM,2ZN7,3A5J,3CWE,3D9C,3EAX,
3EB1,3EU0,3I7Z,3I80,3SME,4BJO,4I8N,4QBW,4Y14,5K9V,5K9W,5KA0,5KA1,5T19,6B90,6NTP,6W30,7KEY,7KLX,7LFO,7MN9,7MNA,8DU7,8G65,8G67,8G68,8G69,8G6A,8SKL

> <UniProt (SwissProt) Recommended Name of Target Chain>
Tyrosine-protein phosphatase non-receptor type 1

> <UniProt (SwissProt) Entry Name of Target Chain>
PTN1_HUMAN

> <UniProt (SwissProt) Primary ID of Target Chain>
P18031

> <UniProt (SwissProt) Secondary ID(s) of Target Chain>
Q5TGD8 Q9BQV9 Q9NQQ4

$$$$
Molecule
  SciTegic10242319433D

 74 79  0  0  0  0            999 V2000
   -3.2123    0.0456    0.1865 N   0  0
   -1.7502    0.5246   -0.4207 C   0  0
   -3.4750   -1.2999    0.3800 N   0  0
    6.2549   -0.0444    0.0105 P   0  0
   -2.0810   -6.8798   -0.0348 P   0  0
   -0.5443   -6.2230   -0.0882 C   0  0
    4.9951   -1.0420   -0.4304 C   0  0
   -4.6480   -1.5764    0.5991 N   0  0
   -4.5433    0.6489    0.3923 C   0  0
   -2.0829    2.1114   -0.5879 C   0  0
   -1.5266    3.1414    0.2918 N   0  0
   -5.3817   -0.4372    0.6043 C   0  0
   -0.6460   -4.7227    0.0372 C   0  0
    3.6408   -0.3565   -0.3566 C   0  0
   -1.0602   -0.4182    0.6840 C   0  0
   -0.4552    1.2918    0.2000 C   0  0
   -1.7913    4.3880    0.1489 C   0  0
    6.0875    0.4187    1.3005 O   0  0
   -2.6885   -6.5240    1.1527 O   0  0
   -2.8622    2.5246   -1.5986 C   0  0
    0.0006   -6.5736   -1.3042 F   0  0
    5.1848   -1.5601   -1.6923 F   0  0
    0.1994   -6.7255    0.9599 F   0  0
    4.9836   -2.0818    0.4805 F   0  0
    7.5769   -0.8519   -0.0586 O   0  0
   -1.9834   -8.4240   -0.1162 O   0  0
   -2.9351   -6.3659   -1.2234 O   0  0
    6.3289    1.1508   -0.9678 O   0  0
   -2.6754    4.8384   -0.8944 C   0  0
   -3.1899    3.9562   -1.7466 C   0  0
   -1.2020   -3.9787   -0.9196 C   0  0
    2.7203   -0.6104   -1.2877 C   0  0
   -0.1484   -4.0867    1.2514 C   0  0
    3.3116    0.5257    0.7584 C   0  0
    1.0381    0.7342   -0.1107 C   0  0
   -0.9118   -1.9516    0.4013 C   0  0
    2.0912    1.0430    0.8747 C   0  0
    1.3636   -0.0381   -1.1727 C   0  0
   -0.2767   -2.7755    1.4245 C   0  0
   -1.3316   -2.5236   -0.7351 C   0  0
   -5.0357    1.8860    0.3984 C   0  0
   -6.6949   -0.3435    0.7845 C   0  0
   -1.1839    5.3847    1.0338 C   0  0
   -2.9878    6.2643   -0.9991 C   0  0
   -6.4968    2.0603    0.6027 C   0  0
   -7.2860    0.9926    0.7723 C   0  0
   -1.4779    6.6788    0.8861 C   0  0
   -2.4230    7.1329   -0.1565 C   0  0
   -0.0565   -0.0278    0.8523 H   0  0
   -1.6471   -0.3191    1.5972 H   0  0
   -0.4912    2.3181   -0.1654 H   0  0
   -0.5748    1.2869    1.2834 H   0  0
   -3.2547    1.8009   -2.3130 H   0  0
    7.5231   -1.6692    0.5984 H   0  0
   -1.5159   -8.6988   -1.0154 H   0  0
   -3.0105   -5.3197   -1.1744 H   0  0
    6.4873    0.7960   -1.9433 H   0  0
   -3.8489    4.2881   -2.5488 H   0  0
   -1.5598   -4.4468   -1.8366 H   0  0
    2.9706   -1.2440   -2.1385 H   0  0
    0.3317   -4.6905    2.0215 H   0  0
    4.0720    0.7629    1.5024 H   0  0
    1.8663    1.7050    1.7109 H   0  0
    0.6222   -0.2387   -1.9460 H   0  0
    0.0954   -2.3118    2.3381 H   0  0
   -1.7694   -1.9115   -1.5236 H   0  0
   -4.3840    2.7482    0.2573 H   0  0
   -7.3089   -1.2312    0.9360 H   0  0
   -0.4911    5.0696    1.8141 H   0  0
   -3.6802    6.6168   -1.7636 H   0  0
   -6.9278    3.0614    0.6146 H   0  0
   -8.3611    1.1188    0.9003 H   0  0
   -1.0135    7.4126    1.5449 H   0  0
   -2.6625    8.1931   -0.2386 H   0  0
  2  1  1  0
  3  1  1  0
  4  7  1  0
  5  6  1  0
  6 13  1  0
  7 14  1  0
  8  3  2  0
  9  1  1  0
 10  2  1  0
 11 10  1  0
 12  9  1  0
 13 31  2  0
 14 32  2  0
 15  2  1  0
 16  2  1  0
 17 11  2  0
 18  4  2  0
 19  5  2  0
 20 10  2  0
 21  6  1  0
 22  7  1  0
 23  6  1  0
 24  7  1  0
 25  4  1  0
 26  5  1  0
 27  5  1  0
 28  4  1  0
 29 30  2  0
 30 20  1  0
 31 40  1  0
 32 38  1  0
 33 39  2  0
 34 37  2  0
 35 16  1  0
 36 15  1  0
 37 35  1  0
 38 35  2  0
 39 36  1  0
 40 36  2  0
 41  9  2  0
 42 12  2  0
 43 17  1  0
 44 29  1  0
 45 41  1  0
 46 45  2  0
 47 43  2  0
 48 44  2  0
  8 12  1  0
 42 46  1  0
 14 34  1  0
 33 13  1  0
 29 17  1  0
 48 47  1  0
 15 49  1  0
 15 50  1  0
 16 51  1  0
 16 52  1  0
 20 53  1  0
 25 54  1  0
 26 55  1  0
 27 56  1  0
 28 57  1  0
 30 58  1  0
 31 59  1  0
 32 60  1  0
 33 61  1  0
 34 62  1  0
 37 63  1  0
 38 64  1  0
 39 65  1  0
 40 66  1  0
 41 67  1  0
 42 68  1  0
 43 69  1  0
 44 70  1  0
 45 71  1  0
 46 72  1  0
 47 73  1  0
 48 74  1  0
M  END
> <Name>
Molecule

> <Clean Energy>
202.794

> <From>
www.bindingDB.org

> <BindingDB Reactant_set_id>
50026912

> <Ligand InChI>
InChI=1S/C32H26F4N4O6P2/c33-31(34,47(41,42)43)24-14-9-21(10-15-24)19-30(40-28-8-4-3-7-27(28)38-39-40,29-18-13-23-5-1-2-6-26(23)37-29)20-22-11-16-25(17-12-22)32(35,36)48(44,45)46/h1-18H,19-20H2,(H2,41,
42,43)(H2,44,45,46)

> <Ligand InChI Key>
ZCFDJLHEIXJWMR-UHFFFAOYSA-N

> <BindingDB MonomerID>
50142325

> <BindingDB Ligand Name>
CHEMBL273474::[(4-{2-Benzotriazol-1-yl-3-[4-(difluoro-phosphono-methyl)-phenyl]-2-quinolin-2-yl-propyl}-phenyl)-difluoro-methyl]-phosphonic acid

> <Target Name>
Tyrosine-protein phosphatase non-receptor type 1

> <Target Source Organism According to Curator or DataSource>
Homo sapiens

> <IC50 (nM)>
20

> <Curation/DataSource>
ChEMBL

> <Article DOI>
10.1016/j.bmcl.2003.11.076

> <BindingDB Entry DOI>
10.7270/Q24M9404

> <PMID>
15013020

> <Authors>
Lau, CK; Bayly, CI; Gauthier, JY; Li, CS; Therien, M; Asante-Appiah, E; Cromlish, W; Boie, Y; Forghani, F; Desmarais, S; Wang, Q; Skorey, K; Waddleton, D; Payette, P; Ramachandran, C; Kennedy, BP; Sca
pin, G

> <Institution>
Merck Frosst Centre for Therapeutic Research

> <Link to Ligand in BindingDB>
http://www.bindingdb.org/bind/chemsearch/marvin/MolStructure.jsp?monomerid=50142325

> <Link to Ligand-Target Pair in BindingDB>
http://www.bindingdb.org/jsp/dbsearch/PrimarySearch_ki.jsp?energyterm=kJ/mole&tag=pol&polymerid=2622&target=Tyrosine-protein+phosphatase+non-receptor+type+1&column=ki&startPg=0&Increment=50&submit=Sea
rch
http://www.bindingdb.org/jsp/dbsearch/PrimarySearch_ki.jsp?energyterm=kJ/mole&tag=r21&monomerid=50142325&enzyme=Tyrosine-protein+phosphatase+non-receptor+type+1&column=ki&startPg=0&Increment=50&submit
=Search

> <PubChem CID of Ligand>
44265697

> <PubChem SID of Ligand>
104031716

> <ChEMBL ID of Ligand>
CHEMBL273474

> <ZINC ID of Ligand>
ZINC25993060

> <Number of Protein Chains in Target (bigger than 1 implies a multichain complex)>
1

> <BindingDB Target Chain Sequence>
MEMEKEFEQIDKSGSWAAIYQDIRHEASDFPCRVAKLPKNKNRNRYRDVSPFDHSRIKLHQEDNDYINASLIKMEEAQRSYILTQGPLPNTCGHFWEMVWEQKSRGVVMLNRVMEKGSLKCAQYWPQKEEKEMIFEDTNLKLTLISEDIKSYYTVRQLELENLTTQETREILHFHYTTWPDFGVPESPASFLNFLFKVRE
SGSLSPEHGPVVVHCSAGIGRSGTFCLADTCLLLMDKRKDPSSVDIKKVLLEMRKFRMGLIQTADQLRFSYLAVIEGAKFIMGDSSVQDQWKELSHEDLEPPPEHIPPPPRPPKRILEPHNGKCREFFPNHQWVKEETQEDKDCPIKEEKGSPLNAAPYGIESMSQDTEVRSRVVGGSLRGAQAASPAKGEPSLPEKDED
HALSYWKPFLVNMCVATVLTAGAYLCYRFLFNSNT

> <PDB ID(s) of Target Chain>
1BZJ,1G7G,1GFY,1JF7,1KAK,1KAV,1LQF,1NL9,1NNY,1NO6,1NZ7,1OEM,1OEO,1OES,1OET,1OEU,1OEV,1ONY,1ONZ,1PH0,1PXH,1PYN,1Q1M,1Q6J,1Q6M,1Q6N,1Q6P,1Q6S,1Q6T,1QXK,1SUG,1T48,1T49,1T4J,1WAX,1XBO,2AZR,2B07,2BGD,2BGE,
2CM2,2CM3,2CM7,2CM8,2CMA,2CMB,2CMC,2CNE,2CNF,2CNG,2CNH,2CNI,2F6T,2F6V,2F6W,2F6Y,2F6Z,2F70,2F71,2FJN,2H4G,2H4K,2HB1,2HNP,2HNQ,2QBP,2QBQ,2QBR,2QBS,2VEU,2VEV,2VEW,2VEX,2VEY,2ZMM,2ZN7,3A5J,3CWE,3D9C,3EAX,
3EB1,3EU0,3I7Z,3I80,3SME,4BJO,4I8N,4QBW,4Y14,5K9V,5K9W,5KA0,5KA1,5T19,6B90,6NTP,6W30,7KEY,7KLX,7LFO,7MN9,7MNA,8DU7,8G65,8G67,8G68,8G69,8G6A,8SKL

> <UniProt (SwissProt) Recommended Name of Target Chain>
Tyrosine-protein phosphatase non-receptor type 1

> <UniProt (SwissProt) Entry Name of Target Chain>
PTN1_HUMAN

> <UniProt (SwissProt) Primary ID of Target Chain>
P18031

> <UniProt (SwissProt) Secondary ID(s) of Target Chain>
Q5TGD8 Q9BQV9 Q9NQQ4

$$$$
Molecule
  SciTegic10242319433D

 77 82  0  0  0  0            999 V2000
   -1.8269    3.3245    0.2463 C   0  0
   -3.0281    2.7204    0.5737 C   0  0
   -3.1193    1.3940    0.9704 C   0  0
   -1.9104    0.6823    1.0763 C   0  0
   -0.6813    1.2685    0.7274 C   0  0
   -0.6560    2.5899    0.3004 C   0  0
    0.5217    0.5440    0.7304 C   0  0
    1.7186    1.1255    0.2858 C   0  0
    1.7084    2.4623   -0.1227 C   0  0
    0.5260    3.1853   -0.1045 C   0  0
    3.2791    3.3553   -0.7547 Br  0  0
    3.0685    0.3248    0.1734 C   0  0
    3.9441    0.8242    1.1124 F   0  0
    2.9973   -1.3448    0.3211 P   0  0
    3.6166    0.5859   -1.0659 F   0  0
   -4.5855    0.6792    1.2482 C   0  0
   -5.8764    0.7586    0.1107 C   0  0  1  0  0  0
   -7.2028   -0.0590    0.6976 C   0  0
   -6.2589    2.3211   -0.1417 N   0  0
   -5.3429    3.1603   -0.3987 N   0  0
   -5.7361    4.3635   -0.5334 N   0  0
   -7.0350    4.3399   -0.3750 C   0  0
   -7.4075    3.0398   -0.1417 C   0  0
   -8.7522    2.7574    0.0392 C   0  0
   -9.6793    3.8028   -0.0059 C   0  0
   -9.2713    5.1186   -0.2283 C   0  0
   -7.9257    5.4048   -0.4229 C   0  0
   -7.5711   -1.5086    0.6115 C   0  0
   -8.1194    0.5952    1.1695 O   0  0
   -8.8682   -1.8211    0.2142 C   0  0
   -9.2848   -3.1446    0.1137 C   0  0
   -8.4106   -4.1761    0.4315 C   0  0
   -7.1310   -3.8720    0.8739 C   0  0
   -6.7280   -2.5452    0.9712 C   0  0
    4.4321   -1.9067    0.1279 O   0  0
    2.2081   -1.8861   -0.6652 O   0  0
    2.4637   -1.7678    1.7053 O   0  0
   -5.2093    0.1536   -1.3215 C   0  0
   -4.1995   -1.0835   -1.2375 C   0  0
   -4.4847   -2.3539   -0.7675 C   0  0
   -3.4967   -3.2994   -0.5008 C   0  0
   -2.1614   -2.9934   -0.7260 C   0  0
   -1.8754   -1.7552   -1.3084 C   0  0
   -2.8780   -0.8256   -1.5491 C   0  0
   -1.0250   -3.9665   -0.2463 C   0  0
    0.1092   -3.8426   -0.9924 F   0  0
   -1.4078   -5.5785   -0.1164 P   0  0
   -0.7201   -3.5502    1.0426 F   0  0
   -0.1692   -6.3065    0.4859 O   0  0
   -2.4871   -5.7759    0.7214 O   0  0
   -1.7053   -6.1528   -1.5162 O   0  0
   -0.1423   -1.1987   -1.7369 Br  0  0
   -1.8036    4.3725   -0.0523 H   0  0
   -3.9419    3.3119    0.5176 H   0  0
   -1.9272   -0.3462    1.4369 H   0  0
    0.5257   -0.4870    1.0841 H   0  0
    0.5270    4.2311   -0.4117 H   0  0
   -4.3824   -0.3803    1.4039 H   0  0
   -4.9665    1.1161    2.1713 H   0  0
   -9.0827    1.7336    0.2144 H   0  0
  -10.7383    3.5865    0.1348 H   0  0
  -10.0080    5.9217   -0.2493 H   0  0
   -7.5829    6.4232   -0.6056 H   0  0
   -9.5667   -1.0181   -0.0213 H   0  0
  -10.2989   -3.3725   -0.2149 H   0  0
   -8.7268   -5.2147    0.3342 H   0  0
   -6.4427   -4.6726    1.1449 H   0  0
   -5.7274   -2.3168    1.3382 H   0  0
    4.7866   -1.6425   -0.8245 H   0  0
    3.0981   -1.3950    2.4544 H   0  0
   -6.0399   -0.1534   -1.9572 H   0  0
   -4.6718    0.9744   -1.7964 H   0  0
   -5.5265   -2.6261   -0.5988 H   0  0
   -3.7725   -4.2807   -0.1148 H   0  0
   -2.6158    0.1334   -1.9958 H   0  0
    0.6571   -6.1758   -0.1488 H   0  0
   -2.5133   -5.6354   -1.9428 H   0  0
  1  2  4  0
  1  6  4  0
  2  3  4  0
  3  4  4  0
  4  5  4  0
  5  7  4  0
  6  5  4  0
  6 10  4  0
  7  8  4  0
  8  9  4  0
  9 10  4  0
  9 11  1  0
  8 12  1  0
 12 13  1  0
 12 14  1  0
 12 15  1  0
  3 16  1  0
 16 17  1  0
 17 18  1  0
 17 19  1  0
 19 20  4  0
 19 23  4  0
 20 21  4  0
 21 22  4  0
 22 27  4  0
 22 23  4  0
 23 24  4  0
 24 25  4  0
 25 26  4  0
 26 27  4  0
 18 28  1  0
 18 29  2  0
 28 30  4  0
 28 34  4  0
 30 31  4  0
 31 32  4  0
 32 33  4  0
 33 34  4  0
 14 35  1  0
 14 36  2  0
 14 37  1  0
 17 38  1  0
 38 39  1  0
 39 40  4  0
 39 44  4  0
 40 41  4  0
 41 42  4  0
 42 43  4  0
 43 44  4  0
 42 45  1  0
 45 46  1  0
 45 47  1  0
 45 48  1  0
 47 49  1  0
 47 50  2  0
 47 51  1  0
 43 52  1  0
  1 53  1  0
  2 54  1  0
  4 55  1  0
  7 56  1  0
 10 57  1  0
 16 58  1  0
 16 59  1  0
 24 60  1  0
 25 61  1  0
 26 62  1  0
 27 63  1  0
 30 64  1  0
 31 65  1  0
 32 66  1  0
 33 67  1  0
 34 68  1  0
 35 69  1  0
 37 70  1  0
 38 71  1  0
 38 72  1  0
 40 73  1  0
 41 74  1  0
 44 75  1  0
 49 76  1  0
 51 77  1  0
M  END
> <Name>
Molecule

> <Clean Energy>
157.699

> <From>
www.bindingDB.org

> <BindingDB Reactant_set_id>
253396

> <Ligand InChI>
InChI=1S/C34H25Br2F4N3O7P2/c35-27-15-21(11-13-25(27)33(37,38)51(45,46)47)19-32(31(44)22-6-2-1-3-7-22,43-30-9-5-4-8-29(30)41-42-43)18-20-10-12-23-17-28(36)26(16-24(23)14-20)34(39,40)52(48,49)50/h1-17H,
18-19H2,(H2,45,46,47)(H2,48,49,50)

> <Ligand InChI Key>
DDGNBFYMTBGGFU-UHFFFAOYSA-N

> <BindingDB MonomerID>
124209

> <BindingDB Ligand Name>
({7-[2-(1H-1,2,3-benzotriazol-1-yl)-2-({3-bromo-4-[difluoro(phosphono)methyl]phenyl}methyl)-3-oxo-3-phenylpropyl]-3-bromonaphthalen-2-yl}difluoromethyl)phosphonic acid (10b)

> <Target Name>
Tyrosine-protein phosphatase non-receptor type 1

> <Target Source Organism According to Curator or DataSource>
Homo sapiens

> <IC50 (nM)>
20

> <Curation/DataSource>
Curated from the literature by BindingDB

> <Article DOI>
10.1002/cmdc.201100077

> <BindingDB Entry DOI>
10.7270/Q2XW4HGZ

> <PMID>
21506278

> <PubChem AID>
aid1800514

> <Authors>
Patel, D; Jain, M; Shah, SR; Bahekar, R; Jadav, P; Darji, B; Siriki, Y; Bandyopadhyay, D; Joharapurkar, A; Kshirsagar, S; Patel, H; Shaikh, M; Sairam, KV; Patel, P

> <Institution>
Zydus Research Centre

> <Link to Ligand in BindingDB>
http://www.bindingdb.org/bind/chemsearch/marvin/MolStructure.jsp?monomerid=124209

> <Link to Ligand-Target Pair in BindingDB>
http://www.bindingdb.org/jsp/dbsearch/PrimarySearch_ki.jsp?energyterm=kJ/mole&tag=pol&polymerid=2622&target=Tyrosine-protein+phosphatase+non-receptor+type+1&column=ki&startPg=0&Increment=50&submit=Sea
rch
http://www.bindingdb.org/jsp/dbsearch/PrimarySearch_ki.jsp?energyterm=kJ/mole&tag=r21&monomerid=124209&enzyme=Tyrosine-protein+phosphatase+non-receptor+type+1&column=ki&startPg=0&Increment=50&submit=S
earch

> <PubChem CID of Ligand>
86766283

> <PubChem SID of Ligand>
225150601

> <Number of Protein Chains in Target (bigger than 1 implies a multichain complex)>
1

> <BindingDB Target Chain Sequence>
MEMEKEFEQIDKSGSWAAIYQDIRHEASDFPCRVAKLPKNKNRNRYRDVSPFDHSRIKLHQEDNDYINASLIKMEEAQRSYILTQGPLPNTCGHFWEMVWEQKSRGVVMLNRVMEKGSLKCAQYWPQKEEKEMIFEDTNLKLTLISEDIKSYYTVRQLELENLTTQETREILHFHYTTWPDFGVPESPASFLNFLFKVRE
SGSLSPEHGPVVVHCSAGIGRSGTFCLADTCLLLMDKRKDPSSVDIKKVLLEMRKFRMGLIQTADQLRFSYLAVIEGAKFIMGDSSVQDQWKELSHEDLEPPPEHIPPPPRPPKRILEPHNGKCREFFPNHQWVKEETQEDKDCPIKEEKGSPLNAAPYGIESMSQDTEVRSRVVGGSLRGAQAASPAKGEPSLPEKDED
HALSYWKPFLVNMCVATVLTAGAYLCYRFLFNSNT

> <PDB ID(s) of Target Chain>
1BZJ,1G7G,1GFY,1JF7,1KAK,1KAV,1LQF,1NL9,1NNY,1NO6,1NZ7,1OEM,1OEO,1OES,1OET,1OEU,1OEV,1ONY,1ONZ,1PH0,1PXH,1PYN,1Q1M,1Q6J,1Q6M,1Q6N,1Q6P,1Q6S,1Q6T,1QXK,1SUG,1T48,1T49,1T4J,1WAX,1XBO,2AZR,2B07,2BGD,2BGE,
2CM2,2CM3,2CM7,2CM8,2CMA,2CMB,2CMC,2CNE,2CNF,2CNG,2CNH,2CNI,2F6T,2F6V,2F6W,2F6Y,2F6Z,2F70,2F71,2FJN,2H4G,2H4K,2HB1,2HNP,2HNQ,2QBP,2QBQ,2QBR,2QBS,2VEU,2VEV,2VEW,2VEX,2VEY,2ZMM,2ZN7,3A5J,3CWE,3D9C,3EAX,
3EB1,3EU0,3I7Z,3I80,3SME,4BJO,4I8N,4QBW,4Y14,5K9V,5K9W,5KA0,5KA1,5T19,6B90,6NTP,6W30,7KEY,7KLX,7LFO,7MN9,7MNA,8DU7,8G65,8G67,8G68,8G69,8G6A,8SKL

> <UniProt (SwissProt) Recommended Name of Target Chain>
Tyrosine-protein phosphatase non-receptor type 1

> <UniProt (SwissProt) Entry Name of Target Chain>
PTN1_HUMAN

> <UniProt (SwissProt) Primary ID of Target Chain>
P18031

> <UniProt (SwissProt) Secondary ID(s) of Target Chain>
Q5TGD8 Q9BQV9 Q9NQQ4

$$$$
Molecule
  SciTegic10242319433D

 76 81  0  0  0  0            999 V2000
   -1.8402    3.3917    0.2640 C   0  0
   -3.0318    2.7682    0.5826 C   0  0
   -3.0917    1.4260    0.9295 C   0  0
   -1.9285    0.7507    0.9944 N   0  0
   -0.7383    1.3091    0.6886 C   0  0
   -0.6839    2.6415    0.2998 C   0  0
    0.4562    0.5725    0.6926 C   0  0
    1.6708    1.1439    0.2782 C   0  0
    1.6836    2.4886   -0.1020 C   0  0
    0.5133    3.2287   -0.0789 C   0  0
    3.2758    3.3701   -0.6964 Br  0  0
    3.0212    0.3291    0.1717 C   0  0
    3.8890    0.8275    1.1179 F   0  0
    2.9643   -1.3462    0.3187 P   0  0
    3.5802    0.5949   -1.0623 F   0  0
   -4.5496    0.6943    1.2191 C   0  0
   -5.8520    0.7641    0.0999 C   0  0  1  0  0  0
   -7.1695   -0.0535    0.7081 C   0  0
   -6.2540    2.3237   -0.1539 N   0  0
   -5.3375    3.1722   -0.4221 N   0  0
   -5.7389    4.3681   -0.5548 N   0  0
   -7.0467    4.3380   -0.3849 C   0  0
   -7.3898    3.0354   -0.1490 C   0  0
   -8.7482    2.7432    0.0450 C   0  0
   -9.6752    3.7802    0.0049 C   0  0
   -9.2815    5.1002   -0.2220 C   0  0
   -7.9350    5.3947   -0.4279 C   0  0
   -7.5432   -1.5018    0.6146 C   0  0
   -8.0744    0.6012    1.2020 O   0  0
   -8.8452   -1.8107    0.2301 C   0  0
   -9.2634   -3.1335    0.1244 C   0  0
   -8.3861   -4.1680    0.4234 C   0  0
   -7.1015   -3.8676    0.8539 C   0  0
   -6.6972   -2.5416    0.9572 C   0  0
    4.4071   -1.8931    0.1488 O   0  0
    2.2049   -1.9060   -0.6788 O   0  0
    2.4133   -1.7743    1.6944 O   0  0
   -5.1964    0.1485   -1.3256 C   0  0
   -4.1908   -1.0909   -1.2301 C   0  0
   -4.4935   -2.3836   -0.8305 C   0  0
   -3.5158   -3.3431   -0.5654 C   0  0
   -2.1737   -3.0293   -0.7350 C   0  0
   -1.8734   -1.7697   -1.2553 C   0  0
   -2.8601   -0.8239   -1.4840 C   0  0
   -1.0306   -4.0087   -0.2783 C   0  0
   -1.4176   -5.6102   -0.0782 P   0  0
    0.0654   -3.9251   -1.0871 F   0  0
   -0.6478   -3.5469    0.9745 F   0  0
   -0.1424   -1.2312   -1.6408 Br  0  0
   -0.1540   -6.3263    0.4872 O   0  0
   -2.4562   -5.7703    0.8170 O   0  0
   -1.7848   -6.2269   -1.4426 O   0  0
   -1.8152    4.4470   -0.0080 H   0  0
   -3.9538    3.3492    0.5607 H   0  0
    0.4412   -0.4657    1.0244 H   0  0
    0.5337    4.2815   -0.3608 H   0  0
   -4.3338   -0.3637    1.3678 H   0  0
   -4.9249    1.1231    2.1483 H   0  0
   -9.0729    1.7183    0.2247 H   0  0
  -10.7317    3.5570    0.1538 H   0  0
  -10.0245    5.8976   -0.2380 H   0  0
   -7.5977    6.4143   -0.6148 H   0  0
   -9.5461   -1.0057    0.0090 H   0  0
  -10.2815   -3.3584   -0.1936 H   0  0
   -8.7036   -5.2057    0.3210 H   0  0
   -6.4103   -4.6704    1.1106 H   0  0
   -5.6928   -2.3163    1.3156 H   0  0
    4.7744   -1.6250   -0.7977 H   0  0
    3.0321   -1.3952    2.4532 H   0  0
   -6.0303   -0.1617   -1.9554 H   0  0
   -4.6579    0.9630   -1.8099 H   0  0
   -5.5413   -2.6624   -0.7185 H   0  0
   -3.8051   -4.3376   -0.2256 H   0  0
   -2.5789    0.1545   -1.8737 H   0  0
    0.6409   -6.2218   -0.1909 H   0  0
   -2.6084   -5.7168   -1.8476 H   0  0
  1  2  4  0
  1  6  4  0
  2  3  4  0
  3  4  4  0
  4  5  4  0
  5  7  4  0
  6  5  4  0
  6 10  4  0
  7  8  4  0
  8  9  4  0
  9 10  4  0
  9 11  1  0
  8 12  1  0
 12 13  1  0
 12 14  1  0
 12 15  1  0
  3 16  1  0
 16 17  1  0
 17 18  1  0
 17 19  1  0
 19 20  4  0
 19 23  4  0
 20 21  4  0
 21 22  4  0
 22 27  4  0
 22 23  4  0
 23 24  4  0
 24 25  4  0
 25 26  4  0
 26 27  4  0
 18 28  1  0
 18 29  2  0
 28 30  4  0
 28 34  4  0
 30 31  4  0
 31 32  4  0
 32 33  4  0
 33 34  4  0
 14 35  1  0
 14 36  2  0
 14 37  1  0
 17 38  1  0
 38 39  1  0
 39 40  4  0
 40 41  4  0
 42 43  4  0
 43 44  4  0
 41 42  4  0
 44 39  4  0
 42 45  1  0
 45 46  1  0
 45 47  1  0
 45 48  1  0
 43 49  1  0
 46 50  1  0
 46 51  2  0
 46 52  1  0
  1 53  1  0
  2 54  1  0
  7 55  1  0
 10 56  1  0
 16 57  1  0
 16 58  1  0
 24 59  1  0
 25 60  1  0
 26 61  1  0
 27 62  1  0
 30 63  1  0
 31 64  1  0
 32 65  1  0
 33 66  1  0
 34 67  1  0
 35 68  1  0
 37 69  1  0
 38 70  1  0
 38 71  1  0
 40 72  1  0
 41 73  1  0
 44 74  1  0
 50 75  1  0
 52 76  1  0
M  END
> <Name>
Molecule

> <Clean Energy>
158.714

> <From>
www.bindingDB.org

> <BindingDB Reactant_set_id>
253406

> <Ligand InChI>
InChI=1S/C33H24Br2F4N4O7P2/c34-25-14-19(10-13-23(25)32(36,37)51(45,46)47)17-31(30(44)20-6-2-1-3-7-20,43-29-9-5-4-8-27(29)41-42-43)18-22-12-11-21-15-26(35)24(16-28(21)40-22)33(38,39)52(48,49)50/h1-16H,
17-18H2,(H2,45,46,47)(H2,48,49,50)

> <Ligand InChI Key>
YBKNEBASMCRFFE-UHFFFAOYSA-N

> <BindingDB MonomerID>
124218

> <BindingDB Ligand Name>
({2-[2-(1H-1,2,3-benzotriazol-1-yl)-2-({3-bromo-4-[difluoro(phosphono)methyl]phenyl}methyl)-3-oxo-3-phenylpropyl]-6-bromoquinolin-7-yl}difluoromethyl)phosphonic acid (10l)

> <Target Name>
Tyrosine-protein phosphatase non-receptor type 1

> <Target Source Organism According to Curator or DataSource>
Homo sapiens

> <IC50 (nM)>
21

> <Curation/DataSource>
Curated from the literature by BindingDB

> <Article DOI>
10.1002/cmdc.201100077

> <BindingDB Entry DOI>
10.7270/Q2XW4HGZ

> <PMID>
21506278

> <PubChem AID>
aid1800514

> <Authors>
Patel, D; Jain, M; Shah, SR; Bahekar, R; Jadav, P; Darji, B; Siriki, Y; Bandyopadhyay, D; Joharapurkar, A; Kshirsagar, S; Patel, H; Shaikh, M; Sairam, KV; Patel, P

> <Institution>
Zydus Research Centre

> <Link to Ligand in BindingDB>
http://www.bindingdb.org/bind/chemsearch/marvin/MolStructure.jsp?monomerid=124218

> <Link to Ligand-Target Pair in BindingDB>
http://www.bindingdb.org/jsp/dbsearch/PrimarySearch_ki.jsp?energyterm=kJ/mole&tag=pol&polymerid=2622&target=Tyrosine-protein+phosphatase+non-receptor+type+1&column=ki&startPg=0&Increment=50&submit=Sea
rch
http://www.bindingdb.org/jsp/dbsearch/PrimarySearch_ki.jsp?energyterm=kJ/mole&tag=r21&monomerid=124218&enzyme=Tyrosine-protein+phosphatase+non-receptor+type+1&column=ki&startPg=0&Increment=50&submit=S
earch

> <PubChem CID of Ligand>
86766291

> <PubChem SID of Ligand>
225150610

> <Number of Protein Chains in Target (bigger than 1 implies a multichain complex)>
1

> <BindingDB Target Chain Sequence>
MEMEKEFEQIDKSGSWAAIYQDIRHEASDFPCRVAKLPKNKNRNRYRDVSPFDHSRIKLHQEDNDYINASLIKMEEAQRSYILTQGPLPNTCGHFWEMVWEQKSRGVVMLNRVMEKGSLKCAQYWPQKEEKEMIFEDTNLKLTLISEDIKSYYTVRQLELENLTTQETREILHFHYTTWPDFGVPESPASFLNFLFKVRE
SGSLSPEHGPVVVHCSAGIGRSGTFCLADTCLLLMDKRKDPSSVDIKKVLLEMRKFRMGLIQTADQLRFSYLAVIEGAKFIMGDSSVQDQWKELSHEDLEPPPEHIPPPPRPPKRILEPHNGKCREFFPNHQWVKEETQEDKDCPIKEEKGSPLNAAPYGIESMSQDTEVRSRVVGGSLRGAQAASPAKGEPSLPEKDED
HALSYWKPFLVNMCVATVLTAGAYLCYRFLFNSNT

> <PDB ID(s) of Target Chain>
1BZJ,1G7G,1GFY,1JF7,1KAK,1KAV,1LQF,1NL9,1NNY,1NO6,1NZ7,1OEM,1OEO,1OES,1OET,1OEU,1OEV,1ONY,1ONZ,1PH0,1PXH,1PYN,1Q1M,1Q6J,1Q6M,1Q6N,1Q6P,1Q6S,1Q6T,1QXK,1SUG,1T48,1T49,1T4J,1WAX,1XBO,2AZR,2B07,2BGD,2BGE,
2CM2,2CM3,2CM7,2CM8,2CMA,2CMB,2CMC,2CNE,2CNF,2CNG,2CNH,2CNI,2F6T,2F6V,2F6W,2F6Y,2F6Z,2F70,2F71,2FJN,2H4G,2H4K,2HB1,2HNP,2HNQ,2QBP,2QBQ,2QBR,2QBS,2VEU,2VEV,2VEW,2VEX,2VEY,2ZMM,2ZN7,3A5J,3CWE,3D9C,3EAX,
3EB1,3EU0,3I7Z,3I80,3SME,4BJO,4I8N,4QBW,4Y14,5K9V,5K9W,5KA0,5KA1,5T19,6B90,6NTP,6W30,7KEY,7KLX,7LFO,7MN9,7MNA,8DU7,8G65,8G67,8G68,8G69,8G6A,8SKL

> <UniProt (SwissProt) Recommended Name of Target Chain>
Tyrosine-protein phosphatase non-receptor type 1

> <UniProt (SwissProt) Entry Name of Target Chain>
PTN1_HUMAN

> <UniProt (SwissProt) Primary ID of Target Chain>
P18031

> <UniProt (SwissProt) Secondary ID(s) of Target Chain>
Q5TGD8 Q9BQV9 Q9NQQ4

$$$$
Molecule
  SciTegic10242319433D

 90 94  0  0  0  0            999 V2000
  -11.3103   -2.0746   -0.0192 C   0  0
   -9.8464   -1.8765   -0.0153 C   0  0
   -9.0250   -2.9860   -0.0008 C   0  0
   -9.7266   -4.3248    0.0148 C   0  0
  -11.0606   -4.4364    0.0111 C   0  0
  -11.7214   -5.7475    0.0250 C   0  0
  -13.0569   -5.8248    0.0207 C   0  0
  -13.8928   -4.6070    0.0025 C   0  0
  -13.3317   -3.3982   -0.0107 C   0  0
  -11.8739   -3.2696   -0.0069 C   0  0
   -9.5113   -0.4096   -0.0211 C   0  0
   -8.3767    0.0529    0.0200 O   0  0
  -10.5731    0.4863   -0.0479 O   0  0
   -7.4990   -3.0996    0.0031 O   0  0
   -6.6040   -1.9311   -0.0698 C   0  0
   -5.0523   -2.2346    0.1048 C   0  0
   -4.2230   -0.8766   -0.0529 C   0  0
   -2.6474   -1.0084    0.2068 C   0  0
   -1.9365    0.4009   -0.0395 C   0  0
    0.2067    1.5924   -0.1293 C   0  0
    1.7540    1.8786    0.1454 C   0  0  1  0  0  0
    2.6420    0.6506   -0.2951 C   0  0
   -0.4497    2.4643   -0.7108 O   0  0
   -0.4602    0.4719    0.2543 N   0  0
    4.2357    0.7220   -0.1572 C   0  0
    5.0283    1.9331   -0.0301 C   0  0
    6.3759    1.8656    0.0609 C   0  0
    7.1912    0.6305    0.0610 C   0  0
    6.4036   -0.5040   -0.0881 C   0  0
    6.8999   -1.8666   -0.1824 C   0  0
    6.1222   -2.9400   -0.2992 C   0  0
    4.6834   -2.8311   -0.3512 C   0  0
    4.1039   -1.6414   -0.3055 C   0  0
    4.8966   -0.4211   -0.1807 C   0  0
    9.7228   -0.6499    0.4198 C   0  0
    9.1497   -1.6625    0.7794 O   0  0
    8.8860    0.7115    0.1719 N   0  0
    9.8254    2.0814    0.1218 C   0  0
    9.5478    3.6612   -0.0156 C   0  0
   10.5903    4.4978   -0.0942 C   0  0
   11.9550    4.0762   -0.0392 C   0  0
   12.2143    2.8027    0.1462 C   0  0
   11.1320    1.8412    0.2186 C   0  0
    8.3198    4.4439    0.0512 C   0  0
    8.3798    5.6249   -0.3109 O   0  0
    7.2909    4.1085    0.8639 O   0  0
   11.1170   -1.0633   -0.1235 C   0  0
   11.7890   -0.3734   -0.8982 O   0  0
   11.5726   -2.3499    0.1493 O   0  0
    1.8391    4.3519   -0.1870 C   0  0
    1.0194    4.6573    1.0528 C   0  0
    2.2351    5.2960   -0.8795 O   0  0
    2.1527    3.0937   -0.5677 N   0  0
  -11.9545   -1.1954   -0.0327 H   0  0
   -9.1240   -5.2329    0.0296 H   0  0
  -11.1232   -6.6586    0.0387 H   0  0
  -13.5367   -6.8035    0.0310 H   0  0
  -14.9790   -4.6979   -0.0003 H   0  0
  -13.9579   -2.5062   -0.0242 H   0  0
  -11.1443    0.3270   -0.9145 H   0  0
   -6.8987   -1.2350    0.7155 H   0  0
   -6.7452   -1.4622   -1.0435 H   0  0
   -4.8737   -2.6565    1.0939 H   0  0
   -4.7333   -2.9457   -0.6571 H   0  0
   -4.3681   -0.5085   -1.0685 H   0  0
   -4.6227   -0.1526    0.6571 H   0  0
   -2.4759   -1.3248    1.2357 H   0  0
   -2.2292   -1.7482   -0.4759 H   0  0
   -2.0781    0.6640   -1.0877 H   0  0
   -2.4349    1.1372    0.5910 H   0  0
    1.8927    2.0418    1.2141 H   0  0
    2.3134   -0.2033    0.2973 H   0  0
    2.4257    0.4679   -1.3477 H   0  0
    0.0455   -0.3318    0.7477 H   0  0
    4.5328    2.9037   -0.0079 H   0  0
    6.9126    2.8108    0.1420 H   0  0
    7.9788   -2.0193   -0.1557 H   0  0
    6.5828   -3.9262   -0.3570 H   0  0
    4.0727   -3.7306   -0.4284 H   0  0
    3.0176   -1.5716   -0.3619 H   0  0
   10.3864    5.5626   -0.2069 H   0  0
   12.7644    4.7979   -0.1489 H   0  0
   13.2466    2.4673    0.2458 H   0  0
   11.4208    0.8011    0.3699 H   0  0
    7.3427    4.6746    1.7467 H   0  0
   11.6207   -2.9013   -0.7431 H   0  0
    0.7497    3.7253    1.5493 H   0  0
    0.1133    5.1918    0.7673 H   0  0
    1.6057    5.2746    1.7336 H   0  0
    2.7361    2.9767   -1.4570 H   0  0
  1  2  1  0
  2  3  2  0
  3  4  1  0
  4  5  2  0
  5  6  1  0
  6  7  2  0
  7  8  1  0
  8  9  2  0
  9 10  1  0
  1 10  2  0
  5 10  1  0
  2 11  1  0
 11 12  2  0
 11 13  1  0
 15 16  1  0
 16 17  1  0
 17 18  1  0
 18 19  1  0
 14 15  1  0
 20 21  1  0
 21 22  1  0
 20 23  2  0
 20 24  1  0
 25 26  1  0
 26 27  2  0
 27 28  1  0
 28 29  2  0
 29 30  1  0
 30 31  2  0
 31 32  1  0
 32 33  2  0
 33 34  1  0
 25 34  2  0
 29 34  1  0
 35 36  2  0
 35 37  1  0
 38 39  1  0
 39 40  2  0
 40 41  1  0
 41 42  2  0
 42 43  1  0
 38 43  2  0
 44 45  2  0
 44 46  1  0
 39 44  1  0
 37 38  1  0
 47 48  2  0
 47 49  1  0
 35 47  1  0
 28 37  1  0
 22 25  1  0
 50 51  1  0
 50 52  2  0
 50 53  1  0
 21 53  1  0
 19 24  1  0
  3 14  1  0
  1 54  1  0
  4 55  1  0
  6 56  1  0
  7 57  1  0
  8 58  1  0
  9 59  1  0
 13 60  1  0
 15 61  1  0
 15 62  1  0
 16 63  1  0
 16 64  1  0
 17 65  1  0
 17 66  1  0
 18 67  1  0
 18 68  1  0
 19 69  1  0
 19 70  1  0
 21 71  1  0
 22 72  1  0
 22 73  1  0
 24 74  1  0
 26 75  1  0
 27 76  1  0
 30 77  1  0
 31 78  1  0
 32 79  1  0
 33 80  1  0
 40 81  1  0
 41 82  1  0
 42 83  1  0
 43 84  1  0
 46 85  1  0
 49 86  1  0
 51 87  1  0
 51 88  1  0
 51 89  1  0
 53 90  1  0
M  END
> <Name>
Molecule

> <Clean Energy>
133.254

> <From>
www.bindingDB.org

> <BindingDB Reactant_set_id>
50503530

> <Ligand InChI>
InChI=1S/C40H37N3O10/c1-24(44)42-32(36(45)41-19-9-2-10-20-53-35-23-26-12-4-3-11-25(26)21-31(35)39(49)50)22-27-17-18-34(29-14-6-5-13-28(27)29)43(37(46)40(51)52)33-16-8-7-15-30(33)38(47)48/h3-8,11-18,21
,23,32H,2,9-10,19-20,22H2,1H3,(H,41,45)(H,42,44)(H,47,48)(H,49,50)(H,51,52)/t32-/m1/s1

> <Ligand InChI Key>
URRKGBLRIVECAH-JGCGQSQUSA-N

> <BindingDB MonomerID>
50183065

> <BindingDB Ligand Name>
CHEMBL541953

> <Target Name>
Tyrosine-protein phosphatase non-receptor type 1

> <Target Source Organism According to Curator or DataSource>
Homo sapiens

> <IC50 (nM)>
22

> <Curation/DataSource>
ChEMBL

> <Article DOI>
10.1016/j.bmc.2016.06.035

> <BindingDB Entry DOI>
10.7270/Q20Z756P

> <PMID>
27353889

> <Authors>
Li, X; Wang, L; Shi, D

> <Institution>
Chinese Academy of Sciences

> <Link to Ligand in BindingDB>
http://www.bindingdb.org/bind/chemsearch/marvin/MolStructure.jsp?monomerid=50183065

> <Link to Ligand-Target Pair in BindingDB>
http://www.bindingdb.org/jsp/dbsearch/PrimarySearch_ki.jsp?energyterm=kJ/mole&tag=pol&polymerid=2622&target=Tyrosine-protein+phosphatase+non-receptor+type+1&column=ki&startPg=0&Increment=50&submit=Sea
rch
http://www.bindingdb.org/jsp/dbsearch/PrimarySearch_ki.jsp?energyterm=kJ/mole&tag=r21&monomerid=50183065&enzyme=Tyrosine-protein+phosphatase+non-receptor+type+1&column=ki&startPg=0&Increment=50&submit
=Search

> <PubChem CID of Ligand>
45267908

> <PubChem SID of Ligand>
346550208

> <ChEMBL ID of Ligand>
CHEMBL541953

> <Number of Protein Chains in Target (bigger than 1 implies a multichain complex)>
1

> <BindingDB Target Chain Sequence>
MEMEKEFEQIDKSGSWAAIYQDIRHEASDFPCRVAKLPKNKNRNRYRDVSPFDHSRIKLHQEDNDYINASLIKMEEAQRSYILTQGPLPNTCGHFWEMVWEQKSRGVVMLNRVMEKGSLKCAQYWPQKEEKEMIFEDTNLKLTLISEDIKSYYTVRQLELENLTTQETREILHFHYTTWPDFGVPESPASFLNFLFKVRE
SGSLSPEHGPVVVHCSAGIGRSGTFCLADTCLLLMDKRKDPSSVDIKKVLLEMRKFRMGLIQTADQLRFSYLAVIEGAKFIMGDSSVQDQWKELSHEDLEPPPEHIPPPPRPPKRILEPHNGKCREFFPNHQWVKEETQEDKDCPIKEEKGSPLNAAPYGIESMSQDTEVRSRVVGGSLRGAQAASPAKGEPSLPEKDED
HALSYWKPFLVNMCVATVLTAGAYLCYRFLFNSNT

> <PDB ID(s) of Target Chain>
1BZJ,1G7G,1GFY,1JF7,1KAK,1KAV,1LQF,1NL9,1NNY,1NO6,1NZ7,1OEM,1OEO,1OES,1OET,1OEU,1OEV,1ONY,1ONZ,1PH0,1PXH,1PYN,1Q1M,1Q6J,1Q6M,1Q6N,1Q6P,1Q6S,1Q6T,1QXK,1SUG,1T48,1T49,1T4J,1WAX,1XBO,2AZR,2B07,2BGD,2BGE,
2CM2,2CM3,2CM7,2CM8,2CMA,2CMB,2CMC,2CNE,2CNF,2CNG,2CNH,2CNI,2F6T,2F6V,2F6W,2F6Y,2F6Z,2F70,2F71,2FJN,2H4G,2H4K,2HB1,2HNP,2HNQ,2QBP,2QBQ,2QBR,2QBS,2VEU,2VEV,2VEW,2VEX,2VEY,2ZMM,2ZN7,3A5J,3CWE,3D9C,3EAX,
3EB1,3EU0,3I7Z,3I80,3SME,4BJO,4I8N,4QBW,4Y14,5K9V,5K9W,5KA0,5KA1,5T19,6B90,6NTP,6W30,7KEY,7KLX,7LFO,7MN9,7MNA,8DU7,8G65,8G67,8G68,8G69,8G6A,8SKL

> <UniProt (SwissProt) Recommended Name of Target Chain>
Tyrosine-protein phosphatase non-receptor type 1

> <UniProt (SwissProt) Entry Name of Target Chain>
PTN1_HUMAN

> <UniProt (SwissProt) Primary ID of Target Chain>
P18031

> <UniProt (SwissProt) Secondary ID(s) of Target Chain>
Q5TGD8 Q9BQV9 Q9NQQ4

$$$$
Molecule
  SciTegic10242319433D

 75 80  0  0  0  0            999 V2000
   -1.8256    3.3369    0.3643 C   0  0
   -3.0225    2.7176    0.6670 C   0  0
   -3.0930    1.3666    0.9752 C   0  0
   -1.9345    0.6768    1.0142 N   0  0
   -0.7417    1.2311    0.7222 C   0  0
   -0.6735    2.5748    0.3755 C   0  0
    0.4502    0.4838    0.6997 C   0  0
    1.6690    1.0613    0.3077 C   0  0
    1.6926    2.4186   -0.0275 C   0  0
    0.5256    3.1646    0.0173 C   0  0
    3.2886    3.3171   -0.5874 Br  0  0
    3.0156    0.2398    0.1792 C   0  0
    3.6154    0.5809   -1.0139 F   0  0
    2.9219   -1.4340    0.1927 P   0  0
    3.8635    0.6470    1.1868 F   0  0
   -4.5549    0.6422    1.2536 C   0  0
   -5.8604    0.7403    0.1386 C   0  0  1  0  0  0
   -7.1815   -0.0928    0.7242 C   0  0
   -6.2413    2.2947   -0.1104 N   0  0
   -5.3275    3.1351   -0.3627 N   0  0
   -5.7267    4.3371   -0.5034 N   0  0
   -7.0246    4.3071   -0.3548 C   0  0
   -7.3973    3.0065   -0.1196 C   0  0
   -8.7370    2.7156    0.0507 C   0  0
   -9.6715    3.7557   -0.0051 C   0  0
   -9.2681    5.0727   -0.2288 C   0  0
   -7.9237    5.3668   -0.4135 C   0  0
   -7.5375   -1.5488    0.6309 C   0  0
   -8.1087    0.5533    1.1872 O   0  0
   -8.8227   -1.8702    0.2028 C   0  0
   -9.2282   -3.1964    0.0918 C   0  0
   -8.3547   -4.2223    0.4291 C   0  0
   -7.0880   -3.9101    0.9026 C   0  0
   -6.6958   -2.5807    1.0112 C   0  0
    4.3548   -2.0013    0.0081 O   0  0
    2.1740   -1.8799   -0.8677 O   0  0
    2.3274   -1.9624    1.5153 O   0  0
   -5.2094    0.1678   -1.2925 C   0  0
   -4.2001   -1.0479   -1.2162 C   0  0
   -4.4784   -2.3197   -0.7508 C   0  0
   -3.4862   -3.2639   -0.5055 C   0  0
   -2.1557   -2.9579   -0.7528 C   0  0
   -1.8786   -1.7124   -1.3312 C   0  0
   -2.8849   -0.7821   -1.5430 C   0  0
   -1.0432   -3.9701   -0.3081 C   0  0
   -1.3478   -5.7078   -0.6964 S   0  0
    0.1948   -3.6308   -0.7490 F   0  0
   -1.0297   -3.9276    1.0808 F   0  0
   -0.1722   -1.1378   -1.8270 Br  0  0
   -0.0193   -6.6263   -0.0255 N   0  0
   -2.6390   -6.1764   -0.0547 O   0  0
   -1.7911    4.3993    0.1228 H   0  0
   -3.9389    3.3077    0.6637 H   0  0
    0.4272   -0.5658    0.9927 H   0  0
    0.5526    4.2254   -0.2318 H   0  0
   -4.3468   -0.4198    1.3836 H   0  0
   -4.9252    1.0577    2.1908 H   0  0
   -9.0618    1.6899    0.2260 H   0  0
  -10.7303    3.5339    0.1282 H   0  0
  -10.0092    5.8714   -0.2586 H   0  0
   -7.5865    6.3869   -0.5971 H   0  0
   -9.5208   -1.0718   -0.0488 H   0  0
  -10.2328   -3.4306   -0.2603 H   0  0
   -8.6613   -5.2629    0.3229 H   0  0
   -6.4012   -4.7065    1.1890 H   0  0
   -5.7063   -2.3460    1.4034 H   0  0
    4.7479   -1.6694   -0.9073 H   0  0
    2.9332   -1.6593    2.3177 H   0  0
   -6.0410   -0.1410   -1.9259 H   0  0
   -4.6820    0.9975   -1.7631 H   0  0
   -5.5175   -2.5940   -0.5686 H   0  0
   -3.7549   -4.2466   -0.1180 H   0  0
   -2.6312    0.1842   -1.9788 H   0  0
    0.0186   -6.4781    1.0335 H   0  0
    0.8997   -6.2978   -0.4644 H   0  0
  1  2  4  0
  1  6  4  0
  2  3  4  0
  3  4  4  0
  4  5  4  0
  5  7  4  0
  6  5  4  0
  6 10  4  0
  7  8  4  0
  8  9  4  0
  9 10  4  0
  9 11  1  0
  8 12  1  0
 12 13  1  0
 12 14  1  0
 12 15  1  0
  3 16  1  0
 16 17  1  0
 17 18  1  0
 17 19  1  0
 19 20  4  0
 19 23  4  0
 20 21  4  0
 21 22  4  0
 22 27  4  0
 22 23  4  0
 23 24  4  0
 24 25  4  0
 25 26  4  0
 26 27  4  0
 18 28  1  0
 18 29  2  0
 28 30  4  0
 28 34  4  0
 30 31  4  0
 31 32  4  0
 32 33  4  0
 33 34  4  0
 14 35  1  0
 14 36  2  0
 14 37  1  0
 17 38  1  0
 38 39  1  0
 39 40  4  0
 40 41  4  0
 42 43  4  0
 43 44  4  0
 41 42  4  0
 44 39  4  0
 42 45  1  0
 45 46  1  0
 45 47  1  0
 45 48  1  0
 43 49  1  0
 46 50  1  0
 46 51  2  0
  1 52  1  0
  2 53  1  0
  7 54  1  0
 10 55  1  0
 16 56  1  0
 16 57  1  0
 24 58  1  0
 25 59  1  0
 26 60  1  0
 27 61  1  0
 30 62  1  0
 31 63  1  0
 32 64  1  0
 33 65  1  0
 34 66  1  0
 35 67  1  0
 37 68  1  0
 38 69  1  0
 38 70  1  0
 40 71  1  0
 41 72  1  0
 44 73  1  0
 50 74  1  0
 50 75  1  0
M  END
> <Name>
Molecule

> <Clean Energy>
157.007

> <From>
www.bindingDB.org

> <BindingDB Reactant_set_id>
253407

> <Ligand InChI>
InChI=1S/C33H24Br2F4N5O5PS/c34-25-14-19(10-13-23(25)33(38,39)51(40)49)17-31(30(45)20-6-2-1-3-7-20,44-29-9-5-4-8-27(29)42-43-44)18-22-12-11-21-15-26(35)24(16-28(21)41-22)32(36,37)50(46,47)48/h1-16H,17-
18,40H2,(H2,46,47,48)

> <Ligand InChI Key>
ZFLBXLZTPCCXGA-UHFFFAOYSA-N

> <BindingDB MonomerID>
124219

> <BindingDB Ligand Name>
({2-[2-({4-[(aminosulfinyl)difluoromethyl]-3-bromophenyl}methyl)-2-(1H-1,2,3-benzotriazol-1-yl)-3-oxo-3-phenylpropyl]-6-bromoquinolin-7-yl}difluoromethyl)phosphonic acid (10m)

> <Target Name>
Tyrosine-protein phosphatase non-receptor type 1

> <Target Source Organism According to Curator or DataSource>
Homo sapiens

> <IC50 (nM)>
22

> <Curation/DataSource>
Curated from the literature by BindingDB

> <Article DOI>
10.1002/cmdc.201100077

> <BindingDB Entry DOI>
10.7270/Q2XW4HGZ

> <PMID>
21506278

> <PubChem AID>
aid1800514

> <Authors>
Patel, D; Jain, M; Shah, SR; Bahekar, R; Jadav, P; Darji, B; Siriki, Y; Bandyopadhyay, D; Joharapurkar, A; Kshirsagar, S; Patel, H; Shaikh, M; Sairam, KV; Patel, P

> <Institution>
Zydus Research Centre

> <Link to Ligand in BindingDB>
http://www.bindingdb.org/bind/chemsearch/marvin/MolStructure.jsp?monomerid=124219

> <Link to Ligand-Target Pair in BindingDB>
http://www.bindingdb.org/jsp/dbsearch/PrimarySearch_ki.jsp?energyterm=kJ/mole&tag=pol&polymerid=2622&target=Tyrosine-protein+phosphatase+non-receptor+type+1&column=ki&startPg=0&Increment=50&submit=Sea
rch
http://www.bindingdb.org/jsp/dbsearch/PrimarySearch_ki.jsp?energyterm=kJ/mole&tag=r21&monomerid=124219&enzyme=Tyrosine-protein+phosphatase+non-receptor+type+1&column=ki&startPg=0&Increment=50&submit=S
earch

> <PubChem CID of Ligand>
86766292

> <PubChem SID of Ligand>
225150611

> <Number of Protein Chains in Target (bigger than 1 implies a multichain complex)>
1

> <BindingDB Target Chain Sequence>
MEMEKEFEQIDKSGSWAAIYQDIRHEASDFPCRVAKLPKNKNRNRYRDVSPFDHSRIKLHQEDNDYINASLIKMEEAQRSYILTQGPLPNTCGHFWEMVWEQKSRGVVMLNRVMEKGSLKCAQYWPQKEEKEMIFEDTNLKLTLISEDIKSYYTVRQLELENLTTQETREILHFHYTTWPDFGVPESPASFLNFLFKVRE
SGSLSPEHGPVVVHCSAGIGRSGTFCLADTCLLLMDKRKDPSSVDIKKVLLEMRKFRMGLIQTADQLRFSYLAVIEGAKFIMGDSSVQDQWKELSHEDLEPPPEHIPPPPRPPKRILEPHNGKCREFFPNHQWVKEETQEDKDCPIKEEKGSPLNAAPYGIESMSQDTEVRSRVVGGSLRGAQAASPAKGEPSLPEKDED
HALSYWKPFLVNMCVATVLTAGAYLCYRFLFNSNT

> <PDB ID(s) of Target Chain>
1BZJ,1G7G,1GFY,1JF7,1KAK,1KAV,1LQF,1NL9,1NNY,1NO6,1NZ7,1OEM,1OEO,1OES,1OET,1OEU,1OEV,1ONY,1ONZ,1PH0,1PXH,1PYN,1Q1M,1Q6J,1Q6M,1Q6N,1Q6P,1Q6S,1Q6T,1QXK,1SUG,1T48,1T49,1T4J,1WAX,1XBO,2AZR,2B07,2BGD,2BGE,
2CM2,2CM3,2CM7,2CM8,2CMA,2CMB,2CMC,2CNE,2CNF,2CNG,2CNH,2CNI,2F6T,2F6V,2F6W,2F6Y,2F6Z,2F70,2F71,2FJN,2H4G,2H4K,2HB1,2HNP,2HNQ,2QBP,2QBQ,2QBR,2QBS,2VEU,2VEV,2VEW,2VEX,2VEY,2ZMM,2ZN7,3A5J,3CWE,3D9C,3EAX,
3EB1,3EU0,3I7Z,3I80,3SME,4BJO,4I8N,4QBW,4Y14,5K9V,5K9W,5KA0,5KA1,5T19,6B90,6NTP,6W30,7KEY,7KLX,7LFO,7MN9,7MNA,8DU7,8G65,8G67,8G68,8G69,8G6A,8SKL

> <UniProt (SwissProt) Recommended Name of Target Chain>
Tyrosine-protein phosphatase non-receptor type 1

> <UniProt (SwissProt) Entry Name of Target Chain>
PTN1_HUMAN

> <UniProt (SwissProt) Primary ID of Target Chain>
P18031

> <UniProt (SwissProt) Secondary ID(s) of Target Chain>
Q5TGD8 Q9BQV9 Q9NQQ4

$$$$
Molecule
  SciTegic10242319433D

 83 87  0  0  0  0            999 V2000
   -0.5289  -19.9744    0.0136 C   0  0
    0.9176  -19.6575   -0.0010 C   0  0
    1.3165  -18.3822    0.0605 C   0  0
    0.3281  -17.3064    0.1395 C   0  0
   -0.9712  -17.5907    0.1554 C   0  0
   -1.4175  -18.9812    0.0842 C   0  0
   -8.0546  -28.5855    0.2576 C   0  0
   -7.9257  -29.9985   -0.1049 C   0  0
   -6.7291  -30.5037   -0.3980 C   0  0
   -5.5380  -29.6501   -0.3487 C   0  0
   -5.6561  -28.3658   -0.0115 C   0  0
   -6.9740  -27.8074    0.2990 C   0  0
   -3.9453  -30.3563   -0.7025 S   0  0
   -2.4498  -30.8363    0.0967 N   0  0
   -3.8416  -29.5180    0.5549 O   0  0
   -4.5163  -31.7603   -0.6499 O   0  0
   -1.2097  -30.0697   -0.2818 C   0  0  3  0  0  0
    0.0169  -30.7997    0.4554 C   0  0
    1.4717  -30.2956    0.2150 C   0  0
   -1.3482  -28.5512    0.0021 C   0  0
    2.5996  -31.2242    0.3719 C   0  0
    3.8605  -30.8066    0.2102 C   0  0
    4.1169  -29.3370   -0.1321 C   0  0
    3.0675  -28.5449   -0.2833 C   0  0
    1.7330  -29.0362   -0.1061 C   0  0
    5.4888  -28.6692   -0.3824 C   0  0  2  0  0  0
    6.7797  -29.1147    0.3423 C   0  0
    7.7709  -28.0580   -0.1947 C   0  0
    7.1872  -26.8156   -0.5789 N   0  0
    5.5463  -26.8888   -0.2554 S   0  0
    8.9824  -28.2783   -0.2911 O   0  0
    4.6620  -26.1748   -1.2607 O   0  0
    5.2872  -26.4102    1.1620 O   0  0
   -0.5518  -27.8912    0.7427 N   0  0
   -2.3187  -27.7230   -0.5572 N   0  0
   -2.2882  -26.5067    0.2013 C   0  0  1  0  0  0
   -0.8414  -26.4848    0.6704 C   0  0
   -2.6833  -25.2407   -0.5807 C   0  0
   -2.4273  -23.9546    0.2402 C   0  0
   -9.0121  -30.7839   -0.1406 F   0  0
   -2.8645  -22.7641   -0.6352 C   0  0
   -2.4083  -21.4019   -0.0640 C   0  0
   -0.9659  -21.3185   -0.0777 O   0  0
    4.9534  -31.8407    0.3468 C   0  0
    1.9144  -20.7430   -0.0786 C   0  0
    1.5018  -22.0692   -0.1335 O   0  0
    3.1228  -20.4829   -0.0924 O   0  0
    2.6707  -18.0611    0.0452 O   0  0
    0.6576  -16.2684    0.1854 H   0  0
   -1.7038  -16.7864    0.2216 H   0  0
   -2.4836  -19.2082    0.0888 H   0  0
   -9.0345  -28.1705    0.4936 H   0  0
   -6.6349  -31.5537   -0.6751 H   0  0
   -4.7712  -27.7308    0.0332 H   0  0
   -7.0708  -26.7546    0.5641 H   0  0
   -2.2765  -31.8675   -0.1305 H   0  0
   -1.0651  -30.1903   -1.3554 H   0  0
   -0.1698  -30.7271    1.5269 H   0  0
   -0.0093  -31.8462    0.1517 H   0  0
    2.4066  -32.2671    0.6234 H   0  0
    3.2212  -27.4987   -0.5476 H   0  0
    0.8995  -28.3468   -0.2408 H   0  0
    5.6928  -28.8673   -1.4346 H   0  0
    6.6753  -29.0566    1.4258 H   0  0
    7.0739  -30.1252    0.0588 H   0  0
    7.7075  -25.9811   -1.0007 H   0  0
   -2.9575  -27.9488   -1.3854 H   0  0
   -2.9423  -26.6098    1.0671 H   0  0
   -0.7445  -26.0062    1.6449 H   0  0
   -0.1958  -25.9803   -0.0485 H   0  0
   -2.0969  -25.1957   -1.4985 H   0  0
   -3.7433  -25.2957   -0.8285 H   0  0
   -3.0111  -23.9761    1.1605 H   0  0
   -1.3680  -23.8708    0.4832 H   0  0
   -2.4346  -22.8865   -1.6294 H   0  0
   -3.9522  -22.7652   -0.7065 H   0  0
   -2.8220  -20.5983   -0.6732 H   0  0
   -2.7657  -21.3024    0.9609 H   0  0
    5.9232  -31.3678    0.1924 H   0  0
    4.8089  -32.6235   -0.3978 H   0  0
    4.9179  -32.2780    1.3447 H   0  0
    1.8516  -22.5087   -1.0207 H   0  0
    2.8779  -17.4551   -0.7869 H   0  0
 23 24  2  0
 12  7  2  0
 24 25  1  0
 25 19  2  0
 26 27  1  0
  6  1  2  0
 10 13  1  0
  1  2  1  0
 13 14  1  0
  3  4  1  0
 27 28  1  0
 28 29  1  0
 29 30  1  0
 30 26  1  0
 26 23  1  0
 13 15  2  0
 28 31  2  0
  7  8  1  0
 30 32  2  0
 13 16  2  0
 30 33  2  0
 20 34  2  0
 17 14  1  0
 34 37  1  0
 36 35  1  0
 35 20  1  0
  8  9  2  0
 17 18  1  0
 36 37  1  0
  4  5  2  0
 36 38  1  0
 18 19  1  0
 38 39  1  0
  9 10  1  0
  8 40  1  0
 17 20  1  0
 39 41  1  0
  2  3  2  0
 41 42  1  0
 19 21  1  0
 42 43  1  0
 43  1  1  0
 10 11  2  0
 22 44  1  0
 21 22  2  0
  5  6  1  0
 22 23  1  0
 45 46  1  0
 45 47  2  0
  2 45  1  0
 11 12  1  0
  3 48  1  0
  4 49  1  0
  5 50  1  0
  6 51  1  0
  7 52  1  0
  9 53  1  0
 11 54  1  0
 12 55  1  0
 14 56  1  0
 17 57  1  0
 18 58  1  0
 18 59  1  0
 21 60  1  0
 24 61  1  0
 25 62  1  0
 26 63  1  0
 27 64  1  0
 27 65  1  0
 29 66  1  0
 35 67  1  0
 36 68  1  0
 37 69  1  0
 37 70  1  0
 38 71  1  0
 38 72  1  0
 39 73  1  0
 39 74  1  0
 41 75  1  0
 41 76  1  0
 42 77  1  0
 42 78  1  0
 44 79  1  0
 44 80  1  0
 44 81  1  0
 46 82  1  0
 48 83  1  0
M  END
> <Name>
Molecule

> <Clean Energy>
166.774

> <From>
www.bindingDB.org

> <BindingDB Reactant_set_id>
50406881

> <Ligand InChI>
InChI=1S/C32H35FN4O9S2/c1-19-14-20(11-12-24(19)28-17-29(39)37-48(28,44)45)15-25(36-47(42,43)23-8-4-6-21(33)16-23)31-34-18-22(35-31)7-2-3-13-46-27-10-5-9-26(38)30(27)32(40)41/h4-6,8-12,14,16,22,25,28,3
6,38H,2-3,7,13,15,17-18H2,1H3,(H,34,35)(H,37,39)(H,40,41)/t22-,25?,28?/m1/s1

> <Ligand InChI Key>
MTVDVLMUFHSRJN-WQYTUBPHSA-N

> <BindingDB MonomerID>
50228014

> <BindingDB Ligand Name>
2-[4-((R)-2-{1-(3-fluoro-benzenesulfonylamino)-2-[3-methyl-4-(1,1,3-trioxo-1lambda6-isothiazolidin-5-yl)-phenyl]-ethyl}-4,5-dihydro-3H-imidazol-4-yl)-butoxy]-6-hydroxy-benzoic acid::CHEMBL403468

> <Target Name>
Tyrosine-protein phosphatase non-receptor type 1

> <Target Source Organism According to Curator or DataSource>
Homo sapiens

> <IC50 (nM)>
22

> <Curation/DataSource>
ChEMBL

> <Article DOI>
10.1016/j.bmcl.2007.11.012

> <BindingDB Entry DOI>
10.7270/Q2BV7GCQ

> <PMID>
18037290

> <Authors>
Douty, B; Wayland, B; Ala, PJ; Bower, MJ; Pruitt, J; Bostrom, L; Wei, M; Klabe, R; Gonneville, L; Wynn, R; Burn, TC; Liu, PC; Combs, AP; Yue, EW

> <Institution>
Incyte Corporation

> <Link to Ligand in BindingDB>
http://www.bindingdb.org/bind/chemsearch/marvin/MolStructure.jsp?monomerid=50228014

> <Link to Ligand-Target Pair in BindingDB>
http://www.bindingdb.org/jsp/dbsearch/PrimarySearch_ki.jsp?energyterm=kJ/mole&tag=pol&polymerid=2622&target=Tyrosine-protein+phosphatase+non-receptor+type+1&column=ki&startPg=0&Increment=50&submit=Sea
rch
http://www.bindingdb.org/jsp/dbsearch/PrimarySearch_ki.jsp?energyterm=kJ/mole&tag=r21&monomerid=50228014&enzyme=Tyrosine-protein+phosphatase+non-receptor+type+1&column=ki&startPg=0&Increment=50&submit
=Search

> <PubChem CID of Ligand>
44446131

> <PubChem SID of Ligand>
104097701

> <ChEMBL ID of Ligand>
CHEMBL403468

> <ZINC ID of Ligand>
ZINC28977752

> <Number of Protein Chains in Target (bigger than 1 implies a multichain complex)>
1

> <BindingDB Target Chain Sequence>
MEMEKEFEQIDKSGSWAAIYQDIRHEASDFPCRVAKLPKNKNRNRYRDVSPFDHSRIKLHQEDNDYINASLIKMEEAQRSYILTQGPLPNTCGHFWEMVWEQKSRGVVMLNRVMEKGSLKCAQYWPQKEEKEMIFEDTNLKLTLISEDIKSYYTVRQLELENLTTQETREILHFHYTTWPDFGVPESPASFLNFLFKVRE
SGSLSPEHGPVVVHCSAGIGRSGTFCLADTCLLLMDKRKDPSSVDIKKVLLEMRKFRMGLIQTADQLRFSYLAVIEGAKFIMGDSSVQDQWKELSHEDLEPPPEHIPPPPRPPKRILEPHNGKCREFFPNHQWVKEETQEDKDCPIKEEKGSPLNAAPYGIESMSQDTEVRSRVVGGSLRGAQAASPAKGEPSLPEKDED
HALSYWKPFLVNMCVATVLTAGAYLCYRFLFNSNT

> <PDB ID(s) of Target Chain>
1BZJ,1G7G,1GFY,1JF7,1KAK,1KAV,1LQF,1NL9,1NNY,1NO6,1NZ7,1OEM,1OEO,1OES,1OET,1OEU,1OEV,1ONY,1ONZ,1PH0,1PXH,1PYN,1Q1M,1Q6J,1Q6M,1Q6N,1Q6P,1Q6S,1Q6T,1QXK,1SUG,1T48,1T49,1T4J,1WAX,1XBO,2AZR,2B07,2BGD,2BGE,
2CM2,2CM3,2CM7,2CM8,2CMA,2CMB,2CMC,2CNE,2CNF,2CNG,2CNH,2CNI,2F6T,2F6V,2F6W,2F6Y,2F6Z,2F70,2F71,2FJN,2H4G,2H4K,2HB1,2HNP,2HNQ,2QBP,2QBQ,2QBR,2QBS,2VEU,2VEV,2VEW,2VEX,2VEY,2ZMM,2ZN7,3A5J,3CWE,3D9C,3EAX,
3EB1,3EU0,3I7Z,3I80,3SME,4BJO,4I8N,4QBW,4Y14,5K9V,5K9W,5KA0,5KA1,5T19,6B90,6NTP,6W30,7KEY,7KLX,7LFO,7MN9,7MNA,8DU7,8G65,8G67,8G68,8G69,8G6A,8SKL

> <UniProt (SwissProt) Recommended Name of Target Chain>
Tyrosine-protein phosphatase non-receptor type 1

> <UniProt (SwissProt) Entry Name of Target Chain>
PTN1_HUMAN

> <UniProt (SwissProt) Primary ID of Target Chain>
P18031

> <UniProt (SwissProt) Secondary ID(s) of Target Chain>
Q5TGD8 Q9BQV9 Q9NQQ4

$$$$
Molecule
  SciTegic10242319433D

 79 83  0  0  0  0            999 V2000
    3.0946    1.6069    0.3296 C   0  0
    3.3136    0.1770    0.4770 C   0  0
    4.5069   -0.3654    0.2627 C   0  0
    5.6085    0.4921   -0.1045 C   0  0
    5.4417    1.8008   -0.2204 C   0  0
    4.1544    2.4120    0.0611 C   0  0
    4.0695    3.9354    0.0824 C   0  0  1  0  0  0
    5.5879    4.8478   -0.0331 S   0  0
    4.8120    6.3032    0.2583 N   0  0
    3.4476    6.1793   -0.1511 C   0  0
    3.0426    4.7871   -0.6883 C   0  0
    2.6425    7.1094   -0.0532 O   0  0
    6.5858    4.4296    1.0269 O   0  0
    6.1935    4.8471   -1.4261 O   0  0
    4.6545   -1.8468    0.5940 C   0  0
    5.5953   -2.8285   -0.1796 C   0  0  2  0  0  0
    5.4130   -4.1889    0.4263 N   0  0
    7.0777   -2.4670   -0.1465 C   0  0
    7.9926   -3.2765    0.2011 N   0  0
    7.6051   -1.2460   -0.5184 N   0  0
    8.8953   -1.1580    0.0293 C   0  0  1  0  0  0
    9.2800   -2.6429    0.0148 C   0  0
    4.0237   -5.2007   -0.1325 S   0  0
    1.7226    2.1247    0.6900 C   0  0
    2.3268   -4.5353   -0.1247 C   0  0
    4.0126   -6.4697    0.6998 O   0  0
    4.3211   -5.6095   -1.5613 O   0  0
    2.0562   -3.2564   -0.3685 C   0  0
    0.6890   -2.7543   -0.3844 C   0  0
   -0.3219   -3.5901   -0.1810 C   0  0
   -0.0528   -5.0058    0.0596 C   0  0
    1.2033   -5.4566    0.0918 C   0  0
   -1.0741   -5.8512    0.2438 F   0  0
    9.8465   -0.2037   -0.7438 C   0  0
   11.2822   -0.0747   -0.1557 C   0  0
   12.0132   -1.3223   -0.1228 O   0  0
   13.3998   -1.0594   -0.0470 C   0  0
   14.3138   -2.0442    0.0272 C   0  0
   15.7398   -1.6984    0.0799 C   0  0
   16.1416   -0.4322    0.0270 C   0  0
   15.1611    0.6370   -0.0580 C   0  0
   13.8638    0.3446   -0.1004 C   0  0
   13.9091   -3.7899    0.1003 S   0  0
   12.2923   -4.1478    0.8034 C   0  0
   13.9731   -4.3544   -1.3108 O   0  0
   14.9633   -4.4900    0.9294 O   0  0
    2.4812   -0.4631    0.7693 H   0  0
    6.5907    0.0567   -0.2889 H   0  0
    6.2792    2.4259   -0.5302 H   0  0
    3.7788    4.1241    1.1158 H   0  0
    5.2615    7.1781    0.6796 H   0  0
    2.0165    4.5289   -0.4266 H   0  0
    3.1731    4.7099   -1.7677 H   0  0
    4.9787   -1.8856    1.6340 H   0  0
    3.6533   -2.2692    0.5091 H   0  0
    5.2727   -2.8680   -1.2200 H   0  0
    6.3068   -4.7440    0.2315 H   0  0
    7.1193   -0.5024   -1.1151 H   0  0
    8.8192   -0.8217    1.0633 H   0  0
    9.7301   -2.9282   -0.9361 H   0  0
    9.9641   -2.8848    0.8282 H   0  0
    1.0491    1.2844    0.8579 H   0  0
    1.3399    2.7391   -0.1251 H   0  0
    1.7870    2.7250    1.5975 H   0  0
    2.8779   -2.5668   -0.5612 H   0  0
    0.4968   -1.6962   -0.5626 H   0  0
   -1.3479   -3.2221   -0.1935 H   0  0
    1.3961   -6.5128    0.2795 H   0  0
    9.9334   -0.5708   -1.7664 H   0  0
    9.3952    0.7885   -0.7505 H   0  0
   11.8409    0.6350   -0.7657 H   0  0
   11.2034    0.3044    0.8632 H   0  0
   16.4812   -2.4929    0.1637 H   0  0
   17.2055   -0.1963    0.0475 H   0  0
   15.4879    1.6764   -0.0871 H   0  0
   13.1332    1.1500   -0.1754 H   0  0
   12.1287   -5.2254    0.8098 H   0  0
   11.5199   -3.6672    0.2029 H   0  0
   12.2472   -3.7679    1.8241 H   0  0
 21 22  1  0
 10 11  1  0
 17 23  1  0
  7 11  1  0
  1 24  1  0
  5  6  1  0
 23 25  1  0
 10 12  2  0
 23 26  2  0
  6  1  2  0
 23 27  2  0
  8 13  2  0
 25 28  2  0
  6  7  1  0
 28 29  1  0
  8 14  2  0
 29 30  2  0
  7  8  1  0
 30 31  1  0
  3 15  1  0
 31 32  2  0
 32 25  1  0
  1  2  1  0
 31 33  1  0
 16 15  1  0
 21 34  1  0
  3  4  1  0
 34 35  1  0
 16 17  1  0
 35 36  1  0
 36 37  1  0
 16 18  1  0
 37 38  2  0
 19 22  1  0
 38 39  1  0
  4  5  2  0
 39 40  2  0
  2  3  2  0
 40 41  1  0
 18 19  2  0
 41 42  2  0
 42 37  1  0
 21 20  1  0
 38 43  1  0
 20 18  1  0
 43 44  1  0
  8  9  1  0
 43 45  2  0
  9 10  1  0
 43 46  2  0
  2 47  1  0
  4 48  1  0
  5 49  1  0
  7 50  1  0
  9 51  1  0
 11 52  1  0
 11 53  1  0
 15 54  1  0
 15 55  1  0
 16 56  1  0
 17 57  1  0
 20 58  1  0
 21 59  1  0
 22 60  1  0
 22 61  1  0
 24 62  1  0
 24 63  1  0
 24 64  1  0
 28 65  1  0
 29 66  1  0
 30 67  1  0
 32 68  1  0
 34 69  1  0
 34 70  1  0
 35 71  1  0
 35 72  1  0
 39 73  1  0
 40 74  1  0
 41 75  1  0
 42 76  1  0
 44 77  1  0
 44 78  1  0
 44 79  1  0
M  END
> <Name>
Molecule

> <Clean Energy>
101.738

> <From>
www.bindingDB.org

> <BindingDB Reactant_set_id>
50554753

> <Ligand InChI>
InChI=1S/C30H33FN4O8S3/c1-19-14-20(10-11-24(19)28-17-29(36)35-46(28,41)42)15-25(34-45(39,40)23-7-5-6-21(31)16-23)30-32-18-22(33-30)12-13-43-26-8-3-4-9-27(26)44(2,37)38/h3-11,14,16,22,25,28,34H,12-13,1
5,17-18H2,1-2H3,(H,32,33)(H,35,36)/t22-,25?,28?/m1/s1

> <Ligand InChI Key>
KKLWOJSLYYMENS-WQYTUBPHSA-N

> <BindingDB MonomerID>
50308844

> <BindingDB Ligand Name>
3-Fluoro-N-{1-{(R)-4-[2-(2-methanesulfonyl-phenoxy)-ethyl]-4,5-dihydro-1H-imidazol-2-yl}-2-[3-methyl-4-(1,1,3-trioxo-1lambda*6*-isothiazolidin-5-yl)-phenyl]-ethyl}-benzenesulfonamide::CHEMBL590689

> <Target Name>
Tyrosine-protein phosphatase non-receptor type 1

> <Target Source Organism According to Curator or DataSource>
Homo sapiens

> <IC50 (nM)>
23

> <Curation/DataSource>
ChEMBL

> <Article DOI>
10.1021/jm901090b

> <BindingDB Entry DOI>
10.7270/Q28P60MB

> <PMID>
20000419

> <Authors>
Combs, AP

> <Institution>
Incyte Corporation

> <Link to Ligand in BindingDB>
http://www.bindingdb.org/bind/chemsearch/marvin/MolStructure.jsp?monomerid=50308844

> <Link to Ligand-Target Pair in BindingDB>
http://www.bindingdb.org/jsp/dbsearch/PrimarySearch_ki.jsp?energyterm=kJ/mole&tag=pol&polymerid=2622&target=Tyrosine-protein+phosphatase+non-receptor+type+1&column=ki&startPg=0&Increment=50&submit=Sea
rch
http://www.bindingdb.org/jsp/dbsearch/PrimarySearch_ki.jsp?energyterm=kJ/mole&tag=r21&monomerid=50308844&enzyme=Tyrosine-protein+phosphatase+non-receptor+type+1&column=ki&startPg=0&Increment=50&submit
=Search

> <PubChem CID of Ligand>
46230107

> <PubChem SID of Ligand>
104163205

> <ChEMBL ID of Ligand>
CHEMBL590689

> <ZINC ID of Ligand>
ZINC49756055

> <Number of Protein Chains in Target (bigger than 1 implies a multichain complex)>
1

> <BindingDB Target Chain Sequence>
MEMEKEFEQIDKSGSWAAIYQDIRHEASDFPCRVAKLPKNKNRNRYRDVSPFDHSRIKLHQEDNDYINASLIKMEEAQRSYILTQGPLPNTCGHFWEMVWEQKSRGVVMLNRVMEKGSLKCAQYWPQKEEKEMIFEDTNLKLTLISEDIKSYYTVRQLELENLTTQETREILHFHYTTWPDFGVPESPASFLNFLFKVRE
SGSLSPEHGPVVVHCSAGIGRSGTFCLADTCLLLMDKRKDPSSVDIKKVLLEMRKFRMGLIQTADQLRFSYLAVIEGAKFIMGDSSVQDQWKELSHEDLEPPPEHIPPPPRPPKRILEPHNGKCREFFPNHQWVKEETQEDKDCPIKEEKGSPLNAAPYGIESMSQDTEVRSRVVGGSLRGAQAASPAKGEPSLPEKDED
HALSYWKPFLVNMCVATVLTAGAYLCYRFLFNSNT

> <PDB ID(s) of Target Chain>
1BZJ,1G7G,1GFY,1JF7,1KAK,1KAV,1LQF,1NL9,1NNY,1NO6,1NZ7,1OEM,1OEO,1OES,1OET,1OEU,1OEV,1ONY,1ONZ,1PH0,1PXH,1PYN,1Q1M,1Q6J,1Q6M,1Q6N,1Q6P,1Q6S,1Q6T,1QXK,1SUG,1T48,1T49,1T4J,1WAX,1XBO,2AZR,2B07,2BGD,2BGE,
2CM2,2CM3,2CM7,2CM8,2CMA,2CMB,2CMC,2CNE,2CNF,2CNG,2CNH,2CNI,2F6T,2F6V,2F6W,2F6Y,2F6Z,2F70,2F71,2FJN,2H4G,2H4K,2HB1,2HNP,2HNQ,2QBP,2QBQ,2QBR,2QBS,2VEU,2VEV,2VEW,2VEX,2VEY,2ZMM,2ZN7,3A5J,3CWE,3D9C,3EAX,
3EB1,3EU0,3I7Z,3I80,3SME,4BJO,4I8N,4QBW,4Y14,5K9V,5K9W,5KA0,5KA1,5T19,6B90,6NTP,6W30,7KEY,7KLX,7LFO,7MN9,7MNA,8DU7,8G65,8G67,8G68,8G69,8G6A,8SKL

> <UniProt (SwissProt) Recommended Name of Target Chain>
Tyrosine-protein phosphatase non-receptor type 1

> <UniProt (SwissProt) Entry Name of Target Chain>
PTN1_HUMAN

> <UniProt (SwissProt) Primary ID of Target Chain>
P18031

> <UniProt (SwissProt) Secondary ID(s) of Target Chain>
Q5TGD8 Q9BQV9 Q9NQQ4

$$$$
Molecule
  SciTegic10242319433D

 79 83  0  0  0  0            999 V2000
    4.0752   -9.2122   -0.2557 C   0  0
    4.1603  -10.6641   -0.1190 C   0  0
    5.3497  -11.2420    0.0183 C   0  0
    6.5869  -10.4417    0.0467 C   0  0
    6.5150   -9.1144   -0.0578 C   0  0
    5.1888   -8.4741   -0.2356 C   0  0
    8.1080  -11.3253    0.3930 S   0  0
    9.4815  -11.2508   -0.7196 N   0  0
    8.5974  -10.8777    1.7542 O   0  0
    7.6830  -12.7770    0.4375 O   0  0
   10.7589  -10.8191   -0.0157 C   0  0  1  0  0  0
   12.0794  -11.5576   -0.6967 C   0  0
   13.5834  -11.1152   -0.3732 C   0  0
   10.7580   -9.3026   -0.0178 C   0  0
   14.5933  -11.9948   -0.3142 C   0  0
   16.0138  -11.5110   -0.0748 C   0  0
   16.2544  -10.1806    0.0330 C   0  0
   15.1516   -9.2896   -0.0662 C   0  0
   13.9264   -9.7329   -0.2587 C   0  0
   17.6174   -9.4927    0.3148 C   0  0  1  0  0  0
   18.9013   -9.8350   -0.4941 C   0  0
   19.8713   -8.7670    0.0801 C   0  0
   19.2509   -7.5780    0.5609 N   0  0
   17.6067   -7.7032    0.2812 S   0  0
   21.0942   -8.9372    0.1247 O   0  0
   16.7256   -7.0866    1.3525 O   0  0
   17.2862   -7.1504   -1.0959 O   0  0
   11.7074   -8.5985    0.4291 N   0  0
    9.7261   -8.5082   -0.4976 N   0  0
    9.9734   -7.1992    0.0317 C   0  0  1  0  0  0
   11.4816   -7.2292    0.1766 C   0  0
    9.4399   -6.0051   -0.8146 C   0  0
    9.8852   -4.6093   -0.2540 C   0  0
    3.0431  -11.4178   -0.1308 F   0  0
   11.3127   -4.4585   -0.4378 O   0  0
   11.8017   -3.1827   -0.1477 C   0  0
   13.1048   -2.9488   -0.3001 C   0  0
   13.6547   -1.6228   -0.0308 C   0  0
   12.8503   -0.6390    0.3670 C   0  0
   11.4141   -0.8920    0.5398 C   0  0
   10.9133   -2.1034    0.2952 C   0  0
   15.3873   -1.3242   -0.2537 S   0  0
   16.2515   -1.6993    1.2908 C   0  0
   15.6182    0.1338   -0.6029 O   0  0
   15.9268   -2.2315   -1.3433 O   0  0
   17.1017  -12.5561    0.0471 C   0  0
    3.1041   -8.7314   -0.3740 H   0  0
    5.4108  -12.3263    0.1114 H   0  0
    7.4193   -8.5075   -0.0131 H   0  0
    5.1222   -7.3923   -0.3508 H   0  0
    9.2601  -10.5483   -1.4958 H   0  0
   10.6932  -11.1488    1.0211 H   0  0
   12.0099  -12.6104   -0.4233 H   0  0
   11.9602  -11.4530   -1.7751 H   0  0
   14.3951  -13.0594   -0.4383 H   0  0
   15.3234   -8.2166    0.0189 H   0  0
   13.1239   -8.9993   -0.3356 H   0  0
   17.8564   -9.7535    1.3458 H   0  0
   18.7497   -9.7095   -1.5662 H   0  0
   19.2491  -10.8481   -0.2920 H   0  0
   19.7494   -6.7501    1.0203 H   0  0
    8.9167   -8.8093   -1.1293 H   0  0
    9.5325   -7.1407    1.0268 H   0  0
   11.8148   -6.6098    1.0093 H   0  0
   11.9769   -6.9053   -0.7387 H   0  0
    9.8153   -6.1061   -1.8329 H   0  0
    8.3506   -6.0445   -0.8228 H   0  0
    9.3626   -3.8172   -0.7902 H   0  0
    9.6458   -4.5493    0.8077 H   0  0
   13.7645   -3.7522   -0.6279 H   0  0
   13.2573    0.3528    0.5640 H   0  0
   10.7560   -0.0877    0.8688 H   0  0
    9.8472   -2.2907    0.4241 H   0  0
   17.3188   -1.5187    1.1637 H   0  0
   16.0893   -2.7447    1.5538 H   0  0
   15.8677   -1.0611    2.0867 H   0  0
   18.0602  -12.0656    0.2158 H   0  0
   17.1498  -13.1401   -0.8721 H   0  0
   16.8796  -13.2165    0.8854 H   0  0
 21 22  1  0
 22 23  1  0
 23 24  1  0
 24 20  1  0
 20 17  1  0
 11 12  1  0
 22 25  2  0
  6  1  2  0
 24 26  2  0
 12 13  1  0
 24 27  2  0
 14 28  2  0
  1  2  1  0
 11 14  1  0
 28 31  1  0
 30 29  1  0
 29 14  1  0
  4  7  1  0
 13 15  2  0
 30 31  1  0
  3  4  1  0
 30 32  1  0
 15 16  1  0
 32 33  1  0
  7  8  1  0
  2 34  1  0
 16 17  2  0
 33 35  1  0
 35 36  1  0
 17 18  1  0
 36 37  2  0
  7  9  2  0
 37 38  1  0
 18 19  2  0
 38 39  2  0
 19 13  1  0
 39 40  1  0
 20 21  1  0
 40 41  2  0
 41 36  1  0
  4  5  2  0
 38 42  1  0
  7 10  2  0
 42 43  1  0
  2  3  2  0
 42 44  2  0
  8 11  1  0
 42 45  2  0
  5  6  1  0
 16 46  1  0
  1 47  1  0
  3 48  1  0
  5 49  1  0
  6 50  1  0
  8 51  1  0
 11 52  1  0
 12 53  1  0
 12 54  1  0
 15 55  1  0
 18 56  1  0
 19 57  1  0
 20 58  1  0
 21 59  1  0
 21 60  1  0
 23 61  1  0
 29 62  1  0
 30 63  1  0
 31 64  1  0
 31 65  1  0
 32 66  1  0
 32 67  1  0
 33 68  1  0
 33 69  1  0
 37 70  1  0
 39 71  1  0
 40 72  1  0
 41 73  1  0
 43 74  1  0
 43 75  1  0
 43 76  1  0
 46 77  1  0
 46 78  1  0
 46 79  1  0
M  END
> <Name>
Molecule

> <Clean Energy>
102.949

> <From>
www.bindingDB.org

> <BindingDB Reactant_set_id>
50406921

> <Ligand InChI>
InChI=1S/C30H33FN4O8S3/c1-19-13-20(9-10-26(19)28-17-29(36)35-46(28,41)42)14-27(34-45(39,40)25-8-3-5-21(31)15-25)30-32-18-22(33-30)11-12-43-23-6-4-7-24(16-23)44(2,37)38/h3-10,13,15-16,22,27-28,34H,11-1
2,14,17-18H2,1-2H3,(H,32,33)(H,35,36)/t22-,27?,28?/m1/s1

> <Ligand InChI Key>
RLNXXAOIKBYYIZ-BQEUZBSESA-N

> <BindingDB MonomerID>
50228013

> <BindingDB Ligand Name>
3-fluoro-N-{1-{(R)-5-[2-(3-methanesulfonyl-phenoxy)-ethyl]-4,5-dihydro-1H-imidazol-2-yl}-2-[3-methyl-4-(1,1,3-trioxo-1lambda6-isothiazolidin-5-yl)-phenyl]-ethyl}-benzenesulfonamide::CHEMBL253476

> <Target Name>
Tyrosine-protein phosphatase non-receptor type 1

> <Target Source Organism According to Curator or DataSource>
Homo sapiens

> <IC50 (nM)>
23

> <Curation/DataSource>
ChEMBL

> <Article DOI>
10.1016/j.bmcl.2007.11.012

> <BindingDB Entry DOI>
10.7270/Q2BV7GCQ

> <PMID>
18037290

> <Authors>
Douty, B; Wayland, B; Ala, PJ; Bower, MJ; Pruitt, J; Bostrom, L; Wei, M; Klabe, R; Gonneville, L; Wynn, R; Burn, TC; Liu, PC; Combs, AP; Yue, EW

> <Institution>
Incyte Corporation

> <Link to Ligand in BindingDB>
http://www.bindingdb.org/bind/chemsearch/marvin/MolStructure.jsp?monomerid=50228013

> <Link to Ligand-Target Pair in BindingDB>
http://www.bindingdb.org/jsp/dbsearch/PrimarySearch_ki.jsp?energyterm=kJ/mole&tag=pol&polymerid=2622&target=Tyrosine-protein+phosphatase+non-receptor+type+1&column=ki&startPg=0&Increment=50&submit=Sea
rch
http://www.bindingdb.org/jsp/dbsearch/PrimarySearch_ki.jsp?energyterm=kJ/mole&tag=r21&monomerid=50228013&enzyme=Tyrosine-protein+phosphatase+non-receptor+type+1&column=ki&startPg=0&Increment=50&submit
=Search

> <PubChem CID of Ligand>
44446128

> <PubChem SID of Ligand>
104097700

> <ChEMBL ID of Ligand>
CHEMBL253476

> <ZINC ID of Ligand>
ZINC28977681

> <Number of Protein Chains in Target (bigger than 1 implies a multichain complex)>
1

> <BindingDB Target Chain Sequence>
MEMEKEFEQIDKSGSWAAIYQDIRHEASDFPCRVAKLPKNKNRNRYRDVSPFDHSRIKLHQEDNDYINASLIKMEEAQRSYILTQGPLPNTCGHFWEMVWEQKSRGVVMLNRVMEKGSLKCAQYWPQKEEKEMIFEDTNLKLTLISEDIKSYYTVRQLELENLTTQETREILHFHYTTWPDFGVPESPASFLNFLFKVRE
SGSLSPEHGPVVVHCSAGIGRSGTFCLADTCLLLMDKRKDPSSVDIKKVLLEMRKFRMGLIQTADQLRFSYLAVIEGAKFIMGDSSVQDQWKELSHEDLEPPPEHIPPPPRPPKRILEPHNGKCREFFPNHQWVKEETQEDKDCPIKEEKGSPLNAAPYGIESMSQDTEVRSRVVGGSLRGAQAASPAKGEPSLPEKDED
HALSYWKPFLVNMCVATVLTAGAYLCYRFLFNSNT

> <PDB ID(s) of Target Chain>
1BZJ,1G7G,1GFY,1JF7,1KAK,1KAV,1LQF,1NL9,1NNY,1NO6,1NZ7,1OEM,1OEO,1OES,1OET,1OEU,1OEV,1ONY,1ONZ,1PH0,1PXH,1PYN,1Q1M,1Q6J,1Q6M,1Q6N,1Q6P,1Q6S,1Q6T,1QXK,1SUG,1T48,1T49,1T4J,1WAX,1XBO,2AZR,2B07,2BGD,2BGE,
2CM2,2CM3,2CM7,2CM8,2CMA,2CMB,2CMC,2CNE,2CNF,2CNG,2CNH,2CNI,2F6T,2F6V,2F6W,2F6Y,2F6Z,2F70,2F71,2FJN,2H4G,2H4K,2HB1,2HNP,2HNQ,2QBP,2QBQ,2QBR,2QBS,2VEU,2VEV,2VEW,2VEX,2VEY,2ZMM,2ZN7,3A5J,3CWE,3D9C,3EAX,
3EB1,3EU0,3I7Z,3I80,3SME,4BJO,4I8N,4QBW,4Y14,5K9V,5K9W,5KA0,5KA1,5T19,6B90,6NTP,6W30,7KEY,7KLX,7LFO,7MN9,7MNA,8DU7,8G65,8G67,8G68,8G69,8G6A,8SKL

> <UniProt (SwissProt) Recommended Name of Target Chain>
Tyrosine-protein phosphatase non-receptor type 1

> <UniProt (SwissProt) Entry Name of Target Chain>
PTN1_HUMAN

> <UniProt (SwissProt) Primary ID of Target Chain>
P18031

> <UniProt (SwissProt) Secondary ID(s) of Target Chain>
Q5TGD8 Q9BQV9 Q9NQQ4

$$$$
Molecule
  SciTegic10242319433D

 73 77  0  0  0  0            999 V2000
    0.7118   -6.8726    0.0275 C   0  0
    1.3208   -5.6539   -0.0009 C   0  0
    9.6819   -3.2789   -0.0617 C   0  0
   -0.6885   -6.7147    0.0288 O   0  0
   11.1230   -2.9657    0.0255 O   0  0
    0.2165   -4.6768   -0.0159 C   0  0
   -0.9669   -5.3984    0.0048 C   0  0
    8.5059   -2.3480   -0.4460 C   0  0
    9.3746   -4.5483    0.2346 C   0  0
    6.9839   -4.1932   -0.0618 C   0  0
   13.1948   -1.7410   -0.2556 C   0  0
    7.2709   -2.8309   -0.4209 C   0  0
    7.9760   -5.0276    0.2325 C   0  0
    2.8395   -5.3169   -0.0161 C   0  0
   11.6671   -1.6378   -0.2301 C   0  0  2  0  0  0
    1.4056   -8.2444    0.0417 C   0  0
    5.5812   -4.6146   -0.0447 C   0  0
   13.9178   -0.7788    0.0319 O   0  0
    3.2296   -4.0523   -0.1849 C   0  0
    3.9073   -6.3427    0.1572 C   0  0
    5.1992   -6.0072    0.1515 C   0  0
    4.6393   -3.6910   -0.2070 C   0  0
    8.6237   -0.5413   -1.0493 Br  0  0
   10.7705   -5.7570    0.6887 Br  0  0
   13.7888   -2.9657   -0.5345 O   0  0
    0.4973   -9.4732    0.0238 C   0  0
    0.2257   -3.3439   -0.0353 C   0  0
   -2.1645   -4.8280    0.0043 C   0  0
   11.2049   -0.4929    0.7320 C   0  0
   -0.8323   -9.3794    0.0115 C   0  0
    1.1201  -10.8004    0.0191 C   0  0
   11.5995    0.8706    0.1022 C   0  0
   10.4111    4.5048    0.5827 C   0  0
   11.1863    3.3149   -0.0033 C   0  0
   10.8890    2.0352    0.8016 C   0  0
   -1.0786   -2.6474   -0.0385 C   0  0
   -2.2166   -3.3541   -0.0202 C   0  0
   10.7039    5.7617   -0.2590 C   0  0
   -1.6633  -10.5829   -0.0054 C   0  0
    0.3659  -11.8981    0.0033 C   0  0
   -1.0922  -11.7850   -0.0092 C   0  0
    6.4435   -2.1711   -0.6820 H   0  0
    7.7577   -6.0681    0.4730 H   0  0
   11.3519   -1.3543   -1.2343 H   0  0
    2.0502   -8.2975   -0.8357 H   0  0
    2.0146   -8.2971    0.9442 H   0  0
    2.4770   -3.2736   -0.3087 H   0  0
    3.6274   -7.3876    0.2913 H   0  0
    5.9642   -6.7706    0.2928 H   0  0
    4.9261   -2.6504   -0.3585 H   0  0
   13.4924   -3.6708    0.1849 H   0  0
    1.1624   -2.7867   -0.0483 H   0  0
   -3.0757   -5.4259    0.0212 H   0  0
   10.1239   -0.5377    0.8637 H   0  0
   11.6943   -0.6060    1.6994 H   0  0
   -1.3045   -8.3970    0.0141 H   0  0
    2.2064  -10.8894    0.0284 H   0  0
   12.6771    1.0056    0.1949 H   0  0
   11.3224    0.8678   -0.9520 H   0  0
    9.3425    4.2911    0.5595 H   0  0
   10.7260    4.6739    1.6124 H   0  0
   10.8856    3.1655   -1.0402 H   0  0
   12.2548    3.5261    0.0389 H   0  0
   11.2639    2.1413    1.8196 H   0  0
    9.8146    1.8535    0.8266 H   0  0
   -1.1143   -1.5581   -0.0558 H   0  0
   -3.1785   -2.8413   -0.0233 H   0  0
   10.1567    6.6102    0.1515 H   0  0
   10.3897    5.5913   -1.2888 H   0  0
   11.7728    5.9740   -0.2362 H   0  0
   -2.7497  -10.4953   -0.0149 H   0  0
    0.8358  -12.8816   -0.0002 H   0  0
   -1.7097  -12.6831   -0.0216 H   0  0
  2  1  2  0
  3  9  2  0
  4  1  1  0
  5  3  1  0
  6  2  1  0
  7  4  1  0
  8 12  2  0
  9 13  1  0
 10 17  1  0
 11 15  1  0
 12 10  1  0
 13 10  2  0
 14  2  1  0
 15  5  1  0
 16  1  1  0
 17 21  1  0
 18 11  2  0
 19 14  2  0
 20 14  1  0
 21 20  2  0
 22 19  1  0
 23  8  1  0
 24  9  1  0
 25 11  1  0
 26 16  1  0
 27  6  2  0
 28  7  2  0
 29 15  1  0
 30 26  2  0
 31 26  1  0
 32 29  1  0
 33 34  1  0
 34 35  1  0
 35 32  1  0
 36 27  1  0
 37 28  1  0
 38 33  1  0
 39 30  1  0
 40 31  2  0
 41 40  1  0
  6  7  1  0
 36 37  2  0
 17 22  2  0
 39 41  2  0
  8  3  1  0
 12 42  1  0
 13 43  1  0
 15 44  1  0
 16 45  1  0
 16 46  1  0
 19 47  1  0
 20 48  1  0
 21 49  1  0
 22 50  1  0
 25 51  1  0
 27 52  1  0
 28 53  1  0
 29 54  1  0
 29 55  1  0
 30 56  1  0
 31 57  1  0
 32 58  1  0
 32 59  1  0
 33 60  1  0
 33 61  1  0
 34 62  1  0
 34 63  1  0
 35 64  1  0
 35 65  1  0
 36 66  1  0
 37 67  1  0
 38 68  1  0
 38 69  1  0
 38 70  1  0
 39 71  1  0
 40 72  1  0
 41 73  1  0
M  END
> <Name>
Molecule

> <Clean Energy>
47.2281

> <From>
www.bindingDB.org

> <BindingDB Reactant_set_id>
50154671

> <Ligand InChI>
InChI=1S/C35H32Br2O4/c1-2-3-4-8-15-31(35(38)39)41-34-28(36)21-26(22-29(34)37)24-16-18-25(19-17-24)33-27-13-9-10-14-30(27)40-32(33)20-23-11-6-5-7-12-23/h5-7,9-14,16-19,21-22,31H,2-4,8,15,20H2,1H3,(H,38
,39)

> <Ligand InChI Key>
HXJGQXHMYYXNGF-UHFFFAOYSA-N

> <BindingDB MonomerID>
50086986

> <BindingDB Ligand Name>
2-[4'-(2-Benzyl-benzofuran-3-yl)-3,5-dibromo-biphenyl-4-yloxy]-octanoic acid::CHEMBL25189

> <Target Name>
Tyrosine-protein phosphatase non-receptor type 1

> <Target Source Organism According to Curator or DataSource>
Homo sapiens

> <IC50 (nM)>
23

> <Curation/DataSource>
ChEMBL

> <Article DOI>
10.1021/jm990560c

> <BindingDB Entry DOI>
10.7270/Q2W958FT

> <PMID>
10753467

> <Authors>
Malamas, MS; Sredy, J; Moxham, C; Katz, A; Xu, W; McDevitt, R; Adebayo, FO; Sawicki, DR; Seestaller, L; Sullivan, D; Taylor, JR

> <Institution>
Wyeth-Ayerst Research

> <Link to Ligand in BindingDB>
http://www.bindingdb.org/bind/chemsearch/marvin/MolStructure.jsp?monomerid=50086986

> <Link to Ligand-Target Pair in BindingDB>
http://www.bindingdb.org/jsp/dbsearch/PrimarySearch_ki.jsp?energyterm=kJ/mole&tag=pol&polymerid=2622&target=Tyrosine-protein+phosphatase+non-receptor+type+1&column=ki&startPg=0&Increment=50&submit=Sea
rch
http://www.bindingdb.org/jsp/dbsearch/PrimarySearch_ki.jsp?energyterm=kJ/mole&tag=r21&monomerid=50086986&enzyme=Tyrosine-protein+phosphatase+non-receptor+type+1&column=ki&startPg=0&Increment=50&submit
=Search

> <PubChem CID of Ligand>
10439508

> <PubChem SID of Ligand>
103986097

> <ChEMBL ID of Ligand>
CHEMBL25189

> <ZINC ID of Ligand>
ZINC28757966

> <Number of Protein Chains in Target (bigger than 1 implies a multichain complex)>
1

> <BindingDB Target Chain Sequence>
MEMEKEFEQIDKSGSWAAIYQDIRHEASDFPCRVAKLPKNKNRNRYRDVSPFDHSRIKLHQEDNDYINASLIKMEEAQRSYILTQGPLPNTCGHFWEMVWEQKSRGVVMLNRVMEKGSLKCAQYWPQKEEKEMIFEDTNLKLTLISEDIKSYYTVRQLELENLTTQETREILHFHYTTWPDFGVPESPASFLNFLFKVRE
SGSLSPEHGPVVVHCSAGIGRSGTFCLADTCLLLMDKRKDPSSVDIKKVLLEMRKFRMGLIQTADQLRFSYLAVIEGAKFIMGDSSVQDQWKELSHEDLEPPPEHIPPPPRPPKRILEPHNGKCREFFPNHQWVKEETQEDKDCPIKEEKGSPLNAAPYGIESMSQDTEVRSRVVGGSLRGAQAASPAKGEPSLPEKDED
HALSYWKPFLVNMCVATVLTAGAYLCYRFLFNSNT

> <PDB ID(s) of Target Chain>
1BZJ,1G7G,1GFY,1JF7,1KAK,1KAV,1LQF,1NL9,1NNY,1NO6,1NZ7,1OEM,1OEO,1OES,1OET,1OEU,1OEV,1ONY,1ONZ,1PH0,1PXH,1PYN,1Q1M,1Q6J,1Q6M,1Q6N,1Q6P,1Q6S,1Q6T,1QXK,1SUG,1T48,1T49,1T4J,1WAX,1XBO,2AZR,2B07,2BGD,2BGE,
2CM2,2CM3,2CM7,2CM8,2CMA,2CMB,2CMC,2CNE,2CNF,2CNG,2CNH,2CNI,2F6T,2F6V,2F6W,2F6Y,2F6Z,2F70,2F71,2FJN,2H4G,2H4K,2HB1,2HNP,2HNQ,2QBP,2QBQ,2QBR,2QBS,2VEU,2VEV,2VEW,2VEX,2VEY,2ZMM,2ZN7,3A5J,3CWE,3D9C,3EAX,
3EB1,3EU0,3I7Z,3I80,3SME,4BJO,4I8N,4QBW,4Y14,5K9V,5K9W,5KA0,5KA1,5T19,6B90,6NTP,6W30,7KEY,7KLX,7LFO,7MN9,7MNA,8DU7,8G65,8G67,8G68,8G69,8G6A,8SKL

> <UniProt (SwissProt) Recommended Name of Target Chain>
Tyrosine-protein phosphatase non-receptor type 1

> <UniProt (SwissProt) Entry Name of Target Chain>
PTN1_HUMAN

> <UniProt (SwissProt) Primary ID of Target Chain>
P18031

> <UniProt (SwissProt) Secondary ID(s) of Target Chain>
Q5TGD8 Q9BQV9 Q9NQQ4

$$$$
Molecule
  SciTegic10242319433D

 66 71  0  0  0  0            999 V2000
   11.1411   -2.7364   -0.9057 S   0  0
   -0.8967   -2.9299   -0.0390 C   0  0
   -0.0623   -1.8263   -0.0066 C   0  0
   -2.5245   -2.4090   -0.0422 S   0  0
   13.4312   -6.5552    0.2474 C   0  0
   10.1830   -1.6173    0.0329 O   0  0
   11.9351   -4.2190   -0.2531 C   0  0
   -0.9301   -0.5189    0.0105 C   0  0
   -2.3277   -0.7939   -0.0092 C   0  0
   11.9641   -6.6327    0.0683 C   0  0
    8.7492   -1.7773    0.0813 C   0  0
   14.2405   -7.7757    0.4417 C   0  0
   11.2507   -5.5217   -0.1680 C   0  0
    8.0398   -0.7201    0.4906 C   0  0
   14.0366   -5.3728    0.1978 C   0  0
   10.3399   -3.1300   -2.1296 O   0  0
   12.3170   -1.8949   -1.3623 O   0  0
    5.9069   -1.8332    0.1057 C   0  0
    6.5648   -0.7428    0.4936 C   0  0
    1.5307   -1.8355    0.0126 C   0  0
   -0.4778   -4.4272   -0.0519 C   0  0
    4.4004   -1.8313    0.0826 C   0  0
   13.2588   -4.1659   -0.0873 C   0  0
    8.0297   -2.9937   -0.3505 C   0  0
   13.7041   -8.8894    0.4416 O   0  0
    6.6865   -3.0244   -0.3241 C   0  0
    2.2475   -2.9515   -0.1607 C   0  0
    2.3019   -0.5810    0.2393 C   0  0
    3.6414   -0.5832    0.2826 C   0  0
    3.7265   -2.9570   -0.1386 C   0  0
    8.9477    0.8740    0.9906 Br  0  0
   11.3240   -7.8660    0.1382 O   0  0
   15.6298   -7.6803    0.5271 O   0  0
   -1.5696   -5.5164   -0.0293 C   0  0
   -0.5151    0.7498    0.0303 C   0  0
   -3.2738    0.1336   -0.0059 C   0  0
   -1.1786   -6.7909   -0.0232 C   0  0
   -3.0096   -5.2206   -0.0133 C   0  0
   -1.5375    1.8294    0.0364 C   0  0
   -2.8441    1.5355    0.0202 C   0  0
   -3.9077   -6.2034    0.0059 C   0  0
   -2.1658   -7.8753   -0.0016 C   0  0
   -3.4667   -7.5946    0.0120 C   0  0
   10.1700   -5.5818   -0.2966 H   0  0
   15.1107   -5.3020    0.3692 H   0  0
    6.0102    0.1387    0.8154 H   0  0
    0.1101   -4.5851   -0.9561 H   0  0
    0.1508   -4.5890    0.8237 H   0  0
   13.7698   -3.2062   -0.1657 H   0  0
    8.5883   -3.8659   -0.6902 H   0  0
    6.1624   -3.9328   -0.6212 H   0  0
    1.7220   -3.8923   -0.3245 H   0  0
    1.7653    0.3583    0.3728 H   0  0
    4.1759    0.3485    0.4678 H   0  0
    4.2674   -3.8887   -0.3044 H   0  0
   10.6150   -7.8495    0.9126 H   0  0
   16.0075   -7.2621   -0.3588 H   0  0
    0.5483    0.9886    0.0418 H   0  0
   -4.3301   -0.1348   -0.0220 H   0  0
   -0.1150   -7.0293   -0.0343 H   0  0
   -3.3462   -4.1839   -0.0172 H   0  0
   -1.2200    2.8720    0.0543 H   0  0
   -3.5850    2.3349    0.0264 H   0  0
   -4.9722   -5.9690    0.0172 H   0  0
   -1.8334   -8.9133    0.0034 H   0  0
   -4.2001   -8.4009    0.0276 H   0  0
  2  3  2  0
  3 20  1  0
  4  2  1  0
  5 15  2  0
  6  1  1  0
  7  1  1  0
  8  3  1  0
  9  8  1  0
 10 13  2  0
 11  6  1  0
 12  5  1  0
 13  7  1  0
 14 11  2  0
 15 23  1  0
 16  1  2  0
 17  1  2  0
 18 26  1  0
 19 14  1  0
 20 27  2  0
 21  2  1  0
 22 18  1  0
 23  7  2  0
 24 11  1  0
 25 12  2  0
 26 24  2  0
 27 30  1  0
 28 29  2  0
 29 22  1  0
 30 22  2  0
 31 14  1  0
 32 10  1  0
 33 12  1  0
 34 21  1  0
 35  8  2  0
 36  9  2  0
 37 34  2  0
 38 34  1  0
 39 35  1  0
 40 39  2  0
 41 38  2  0
 42 37  1  0
 43 41  1  0
 10  5  1  0
 19 18  2  0
 28 20  1  0
  9  4  1  0
 40 36  1  0
 42 43  2  0
 13 44  1  0
 15 45  1  0
 19 46  1  0
 21 47  1  0
 21 48  1  0
 23 49  1  0
 24 50  1  0
 26 51  1  0
 27 52  1  0
 28 53  1  0
 29 54  1  0
 30 55  1  0
 32 56  1  0
 33 57  1  0
 35 58  1  0
 36 59  1  0
 37 60  1  0
 38 61  1  0
 39 62  1  0
 40 63  1  0
 41 64  1  0
 42 65  1  0
 43 66  1  0
M  END
> <Name>
Molecule

> <Clean Energy>
57.8444

> <From>
www.bindingDB.org

> <BindingDB Reactant_set_id>
50154579

> <Ligand InChI>
InChI=1S/C34H23BrO6S2/c35-28-19-24(14-17-30(28)41-43(39,40)25-15-16-26(34(37)38)29(36)20-25)22-10-12-23(13-11-22)33-27-8-4-5-9-31(27)42-32(33)18-21-6-2-1-3-7-21/h1-17,19-20,36H,18H2,(H,37,38)

> <Ligand InChI Key>
OLBKWTZHYBBBDA-UHFFFAOYSA-N

> <BindingDB MonomerID>
50086896

> <BindingDB Ligand Name>
4-[4''-(2-Benzyl-benzo[b]thiophen-3-yl)-3-bromo-biphenyl-4-yloxysulfonyl]-2-hydroxy-benzoic acid::4-[4'-(2-Benzyl-benzo[b]thiophen-3-yl)-3-bromo-biphenyl-4-yloxysulfonyl]-2-hydroxy-benzoic acid::CHEMB
L285308

> <Target Name>
Tyrosine-protein phosphatase non-receptor type 1

> <Target Source Organism According to Curator or DataSource>
Homo sapiens

> <IC50 (nM)>
24

> <Curation/DataSource>
ChEMBL

> <Article DOI>
10.1021/jm990560c

> <BindingDB Entry DOI>
10.7270/Q2W958FT

> <PMID>
10753467

> <Authors>
Malamas, MS; Sredy, J; Moxham, C; Katz, A; Xu, W; McDevitt, R; Adebayo, FO; Sawicki, DR; Seestaller, L; Sullivan, D; Taylor, JR

> <Institution>
Wyeth-Ayerst Research

> <Link to Ligand in BindingDB>
http://www.bindingdb.org/bind/chemsearch/marvin/MolStructure.jsp?monomerid=50086896

> <Link to Ligand-Target Pair in BindingDB>
http://www.bindingdb.org/jsp/dbsearch/PrimarySearch_ki.jsp?energyterm=kJ/mole&tag=pol&polymerid=2622&target=Tyrosine-protein+phosphatase+non-receptor+type+1&column=ki&startPg=0&Increment=50&submit=Sea
rch
http://www.bindingdb.org/jsp/dbsearch/PrimarySearch_ki.jsp?energyterm=kJ/mole&tag=r21&monomerid=50086896&enzyme=Tyrosine-protein+phosphatase+non-receptor+type+1&column=ki&startPg=0&Increment=50&submit
=Search

> <PubChem CID of Ligand>
9917827

> <PubChem SID of Ligand>
103986007

> <ChEMBL ID of Ligand>
CHEMBL285308

> <ZINC ID of Ligand>
ZINC03981792

> <Number of Protein Chains in Target (bigger than 1 implies a multichain complex)>
1

> <BindingDB Target Chain Sequence>
MEMEKEFEQIDKSGSWAAIYQDIRHEASDFPCRVAKLPKNKNRNRYRDVSPFDHSRIKLHQEDNDYINASLIKMEEAQRSYILTQGPLPNTCGHFWEMVWEQKSRGVVMLNRVMEKGSLKCAQYWPQKEEKEMIFEDTNLKLTLISEDIKSYYTVRQLELENLTTQETREILHFHYTTWPDFGVPESPASFLNFLFKVRE
SGSLSPEHGPVVVHCSAGIGRSGTFCLADTCLLLMDKRKDPSSVDIKKVLLEMRKFRMGLIQTADQLRFSYLAVIEGAKFIMGDSSVQDQWKELSHEDLEPPPEHIPPPPRPPKRILEPHNGKCREFFPNHQWVKEETQEDKDCPIKEEKGSPLNAAPYGIESMSQDTEVRSRVVGGSLRGAQAASPAKGEPSLPEKDED
HALSYWKPFLVNMCVATVLTAGAYLCYRFLFNSNT

> <PDB ID(s) of Target Chain>
1BZJ,1G7G,1GFY,1JF7,1KAK,1KAV,1LQF,1NL9,1NNY,1NO6,1NZ7,1OEM,1OEO,1OES,1OET,1OEU,1OEV,1ONY,1ONZ,1PH0,1PXH,1PYN,1Q1M,1Q6J,1Q6M,1Q6N,1Q6P,1Q6S,1Q6T,1QXK,1SUG,1T48,1T49,1T4J,1WAX,1XBO,2AZR,2B07,2BGD,2BGE,
2CM2,2CM3,2CM7,2CM8,2CMA,2CMB,2CMC,2CNE,2CNF,2CNG,2CNH,2CNI,2F6T,2F6V,2F6W,2F6Y,2F6Z,2F70,2F71,2FJN,2H4G,2H4K,2HB1,2HNP,2HNQ,2QBP,2QBQ,2QBR,2QBS,2VEU,2VEV,2VEW,2VEX,2VEY,2ZMM,2ZN7,3A5J,3CWE,3D9C,3EAX,
3EB1,3EU0,3I7Z,3I80,3SME,4BJO,4I8N,4QBW,4Y14,5K9V,5K9W,5KA0,5KA1,5T19,6B90,6NTP,6W30,7KEY,7KLX,7LFO,7MN9,7MNA,8DU7,8G65,8G67,8G68,8G69,8G6A,8SKL

> <UniProt (SwissProt) Recommended Name of Target Chain>
Tyrosine-protein phosphatase non-receptor type 1

> <UniProt (SwissProt) Entry Name of Target Chain>
PTN1_HUMAN

> <UniProt (SwissProt) Primary ID of Target Chain>
P18031

> <UniProt (SwissProt) Secondary ID(s) of Target Chain>
Q5TGD8 Q9BQV9 Q9NQQ4

$$$$
Molecule
  SciTegic10242319433D

 83 89  0  0  0  0            999 V2000
   -0.0156   -6.1446    0.0052 C   0  0
    0.5667   -4.8908    0.0152 C   0  0
   -1.7206   -5.9714   -0.0105 S   0  0
    9.2222   -2.6999   -0.1265 C   0  0
    8.7288   -4.1629   -0.0574 C   0  0
    8.2640   -1.6929   -0.0350 C   0  0
   -0.5668   -3.7936    0.0072 C   0  0
   -1.8710   -4.3625   -0.0060 C   0  0
    7.4260   -4.4473    0.0158 C   0  0
    6.8030   -2.1191    0.0258 C   0  0
    6.4127   -3.4020    0.0331 C   0  0
    8.4772   -0.1175    0.0576 C   0  0
    9.7106   -5.3449   -0.0359 C   0  0
   10.7146   -2.6140   -0.3127 O   0  0
    2.1302   -4.5299    0.0314 C   0  0
    0.6913   -7.5399    0.0065 C   0  0
    4.9278   -3.7877    0.0513 C   0  0
   12.7697   -1.3190   -0.1733 C   0  0
    7.4701    0.7257   -0.2034 C   0  0
   11.0305   -5.1598   -0.0297 C   0  0
   13.3234   -0.2130   -0.2056 O   0  0
    3.0993   -5.4563    0.0413 C   0  0
    2.5823   -3.1057    0.0351 C   0  0
    3.8784   -2.7623    0.0452 C   0  0
    4.5525   -5.0722    0.0489 C   0  0
   11.4157   -1.4709   -0.7945 C   0  0
   11.9761   -6.2502    0.0034 C   0  0
    7.6831    2.2115   -0.0666 C   0  0
   13.3536   -2.3679    0.5220 O   0  0
   -0.2099   -8.8221    0.0028 C   0  0
    9.7264    0.4962    0.5381 C   0  0
    9.2095   -6.7257    0.0022 C   0  0
   -0.4381   -2.4687    0.0118 C   0  0
    6.6489    3.1117   -0.3602 O   0  0
   13.3552   -5.9470    0.0022 O   0  0
   -2.9957   -3.6597   -0.0133 C   0  0
    9.9164    1.7997    0.6551 C   0  0
   10.0710   -7.7482    0.0348 C   0  0
    8.8586    2.6910    0.3345 C   0  0
   11.5249   -7.5028    0.0343 C   0  0
   -1.5438   -8.7759    0.0017 C   0  0
    0.4390  -10.1418    0.0017 C   0  0
    7.0833    4.4788   -0.1560 C   0  0
   14.1674   -7.1251    0.0343 C   0  0
   -1.6663   -1.6329    0.0035 C   0  0
   -2.8788   -2.2007   -0.0079 C   0  0
   -0.2922  -11.2585   -0.0002 C   0  0
   -2.3507   -9.9982   -0.0007 C   0  0
   -1.7535  -11.1855   -0.0015 C   0  0
    7.1128   -5.4902    0.0639 H   0  0
    6.0377   -1.3439    0.0654 H   0  0
    1.3216   -7.5845   -0.8817 H   0  0
    1.3159   -7.5856    0.8986 H   0  0
    6.4995    0.3387   -0.5137 H   0  0
   11.4131   -4.1394   -0.0507 H   0  0
    2.8272   -6.5118    0.0438 H   0  0
    1.8305   -2.3165    0.0293 H   0  0
    4.1558   -1.7082    0.0490 H   0  0
    5.3132   -5.8528    0.0525 H   0  0
   10.8275   -0.5811   -0.5702 H   0  0
   11.5360   -1.5651   -1.8737 H   0  0
   12.7406   -2.6362    1.3312 H   0  0
   10.5467   -0.1660    0.8149 H   0  0
    8.1364   -6.9165    0.0039 H   0  0
    0.5488   -2.0062    0.0214 H   0  0
   -3.9694   -4.1496   -0.0230 H   0  0
   10.8771    2.1867    0.9948 H   0  0
    9.6953   -8.7710    0.0618 H   0  0
    9.0089    3.7675    0.4169 H   0  0
   12.2239   -8.3389    0.0591 H   0  0
   -2.0436   -7.8073    0.0027 H   0  0
    1.5270  -10.2086    0.0025 H   0  0
    6.2647    5.1594   -0.3899 H   0  0
    7.9303    4.6926   -0.8079 H   0  0
    7.3820    4.6143    0.8835 H   0  0
   15.2198   -6.8417    0.0321 H   0  0
   13.9548   -7.7376   -0.8420 H   0  0
   13.9469   -7.6945    0.9372 H   0  0
   -1.5794   -0.5463    0.0067 H   0  0
   -3.7744   -1.5795   -0.0131 H   0  0
    0.2021  -12.2300   -0.0009 H   0  0
   -3.4388   -9.9342   -0.0019 H   0  0
   -2.3484  -12.0988   -0.0031 H   0  0
  2  1  2  0
  3  1  1  0
  4  6  2  0
  5  9  2  0
  6 10  1  0
  7  2  1  0
  8  3  1  0
  9 11  1  0
 10 11  2  0
 11 17  1  0
 12  6  1  0
 13  5  1  0
 14  4  1  0
 15  2  1  0
 16  1  1  0
 17 24  1  0
 18 26  1  0
 19 12  2  0
 20 13  2  0
 21 18  2  0
 22 15  2  0
 23 15  1  0
 24 23  2  0
 25 22  1  0
 26 14  1  0
 27 20  1  0
 28 19  1  0
 29 18  1  0
 30 16  1  0
 31 12  1  0
 32 13  1  0
 33  7  2  0
 34 28  1  0
 35 27  1  0
 36  8  2  0
 37 31  2  0
 38 32  2  0
 39 37  1  0
 40 38  1  0
 41 30  2  0
 42 30  1  0
 43 34  1  0
 44 35  1  0
 45 33  1  0
 46 36  1  0
 47 42  2  0
 48 41  1  0
 49 47  1  0
  7  8  1  0
 45 46  2  0
 25 17  2  0
 48 49  2  0
  5  4  1  0
 28 39  2  0
 27 40  2  0
  9 50  1  0
 10 51  1  0
 16 52  1  0
 16 53  1  0
 19 54  1  0
 20 55  1  0
 22 56  1  0
 23 57  1  0
 24 58  1  0
 25 59  1  0
 26 60  1  0
 26 61  1  0
 29 62  1  0
 31 63  1  0
 32 64  1  0
 33 65  1  0
 36 66  1  0
 37 67  1  0
 38 68  1  0
 39 69  1  0
 40 70  1  0
 41 71  1  0
 42 72  1  0
 43 73  1  0
 43 74  1  0
 43 75  1  0
 44 76  1  0
 44 77  1  0
 44 78  1  0
 45 79  1  0
 46 80  1  0
 47 81  1  0
 48 82  1  0
 49 83  1  0
M  END
> <Name>
Molecule

> <Clean Energy>
73.3512

> <From>
www.bindingDB.org

> <BindingDB Reactant_set_id>
50154655

> <Ligand InChI>
InChI=1S/C43H34O5S/c1-46-34-14-8-12-31(23-34)37-25-33(26-38(43(37)48-27-41(44)45)32-13-9-15-35(24-32)47-2)29-18-20-30(21-19-29)42-36-16-6-7-17-39(36)49-40(42)22-28-10-4-3-5-11-28/h3-21,23-26H,22,27H2,
1-2H3,(H,44,45)

> <Ligand InChI Key>
QYATZZSODBDOMR-UHFFFAOYSA-N

> <BindingDB MonomerID>
50086972

> <BindingDB Ligand Name>
2-{4-[4-(2-benzyl-1-benzothiophen-3-yl)phenyl]-2,6-bis(3-methoxyphenyl)phenoxy}acetic acid::CHEMBL26103::[4'-(2-Benzyl-benzo[b]thiophen-3-yl)-biphenyl-4-yloxy, 3,5 {bis-(3-methoxy-phenyl)}]-acetic aci
d

> <Target Name>
Tyrosine-protein phosphatase non-receptor type 1

> <Target Source Organism According to Curator or DataSource>
Homo sapiens

> <IC50 (nM)>
25

> <Curation/DataSource>
ChEMBL

> <Article DOI>
10.1021/jm990560c

> <BindingDB Entry DOI>
10.7270/Q2W958FT

> <PMID>
10753467

> <Authors>
Malamas, MS; Sredy, J; Moxham, C; Katz, A; Xu, W; McDevitt, R; Adebayo, FO; Sawicki, DR; Seestaller, L; Sullivan, D; Taylor, JR

> <Institution>
Wyeth-Ayerst Research

> <Link to Ligand in BindingDB>
http://www.bindingdb.org/bind/chemsearch/marvin/MolStructure.jsp?monomerid=50086972

> <Link to Ligand-Target Pair in BindingDB>
http://www.bindingdb.org/jsp/dbsearch/PrimarySearch_ki.jsp?energyterm=kJ/mole&tag=pol&polymerid=2622&target=Tyrosine-protein+phosphatase+non-receptor+type+1&column=ki&startPg=0&Increment=50&submit=Sea
rch
http://www.bindingdb.org/jsp/dbsearch/PrimarySearch_ki.jsp?energyterm=kJ/mole&tag=r21&monomerid=50086972&enzyme=Tyrosine-protein+phosphatase+non-receptor+type+1&column=ki&startPg=0&Increment=50&submit
=Search

> <PubChem CID of Ligand>
10746943

> <PubChem SID of Ligand>
103986083

> <ChEMBL ID of Ligand>
CHEMBL26103

> <ZINC ID of Ligand>
ZINC28757352

> <Number of Protein Chains in Target (bigger than 1 implies a multichain complex)>
1

> <BindingDB Target Chain Sequence>
MEMEKEFEQIDKSGSWAAIYQDIRHEASDFPCRVAKLPKNKNRNRYRDVSPFDHSRIKLHQEDNDYINASLIKMEEAQRSYILTQGPLPNTCGHFWEMVWEQKSRGVVMLNRVMEKGSLKCAQYWPQKEEKEMIFEDTNLKLTLISEDIKSYYTVRQLELENLTTQETREILHFHYTTWPDFGVPESPASFLNFLFKVRE
SGSLSPEHGPVVVHCSAGIGRSGTFCLADTCLLLMDKRKDPSSVDIKKVLLEMRKFRMGLIQTADQLRFSYLAVIEGAKFIMGDSSVQDQWKELSHEDLEPPPEHIPPPPRPPKRILEPHNGKCREFFPNHQWVKEETQEDKDCPIKEEKGSPLNAAPYGIESMSQDTEVRSRVVGGSLRGAQAASPAKGEPSLPEKDED
HALSYWKPFLVNMCVATVLTAGAYLCYRFLFNSNT

> <PDB ID(s) of Target Chain>
1BZJ,1G7G,1GFY,1JF7,1KAK,1KAV,1LQF,1NL9,1NNY,1NO6,1NZ7,1OEM,1OEO,1OES,1OET,1OEU,1OEV,1ONY,1ONZ,1PH0,1PXH,1PYN,1Q1M,1Q6J,1Q6M,1Q6N,1Q6P,1Q6S,1Q6T,1QXK,1SUG,1T48,1T49,1T4J,1WAX,1XBO,2AZR,2B07,2BGD,2BGE,
2CM2,2CM3,2CM7,2CM8,2CMA,2CMB,2CMC,2CNE,2CNF,2CNG,2CNH,2CNI,2F6T,2F6V,2F6W,2F6Y,2F6Z,2F70,2F71,2FJN,2H4G,2H4K,2HB1,2HNP,2HNQ,2QBP,2QBQ,2QBR,2QBS,2VEU,2VEV,2VEW,2VEX,2VEY,2ZMM,2ZN7,3A5J,3CWE,3D9C,3EAX,
3EB1,3EU0,3I7Z,3I80,3SME,4BJO,4I8N,4QBW,4Y14,5K9V,5K9W,5KA0,5KA1,5T19,6B90,6NTP,6W30,7KEY,7KLX,7LFO,7MN9,7MNA,8DU7,8G65,8G67,8G68,8G69,8G6A,8SKL

> <UniProt (SwissProt) Recommended Name of Target Chain>
Tyrosine-protein phosphatase non-receptor type 1

> <UniProt (SwissProt) Entry Name of Target Chain>
PTN1_HUMAN

> <UniProt (SwissProt) Primary ID of Target Chain>
P18031

> <UniProt (SwissProt) Secondary ID(s) of Target Chain>
Q5TGD8 Q9BQV9 Q9NQQ4

$$$$
Molecule
  SciTegic10242319433D

 68 73  0  0  0  0            999 V2000
   -0.4924   -4.2235    0.0053 C   0  0
    0.0899   -2.9713    0.0099 C   0  0
   -2.1908   -4.0485   -0.0259 S   0  0
    8.6789   -1.4202    0.2075 C   0  0
   10.1258   -1.0764    0.1443 O   0  0
   -1.0218   -1.8709   -0.0138 C   0  0
   -2.3274   -2.4288   -0.0288 C   0  0
    7.7543   -0.2648   -0.0125 C   0  0
    8.1137   -2.6414    0.4379 C   0  0
    5.8583   -1.7453    0.1831 C   0  0
   11.1568   -2.1162    0.1323 C   0  0  1  0  0  0
   11.0232   -2.8958   -1.1913 C   0  0
    6.4268   -0.4241   -0.0250 C   0  0
    6.6635   -2.7725    0.4052 C   0  0
    1.6329   -2.6330    0.0435 C   0  0
    0.2229   -5.6131    0.0194 C   0  0
    4.4056   -2.0034    0.1341 C   0  0
   12.5846   -1.4537    0.2043 C   0  0
   10.1176   -2.6097   -1.9813 O   0  0
    2.5613   -3.5801    0.1885 C   0  0
    2.1231   -1.2261   -0.0726 C   0  0
    3.4276   -0.9325   -0.0344 C   0  0
    3.9832   -3.2595    0.2371 C   0  0
    8.4844    1.4696   -0.2934 Br  0  0
    9.0356   -4.2890    0.8082 Br  0  0
   11.8219   -3.9966   -1.4652 O   0  0
   -0.6354   -6.9009    0.0106 C   0  0
   13.7777   -2.4208    0.2407 C   0  0
   -0.8749   -0.5478   -0.0094 C   0  0
   -3.4425   -1.7118   -0.0391 C   0  0
   14.9748   -1.9791   -0.1492 C   0  0
   -0.0063   -8.0769    0.0083 C   0  0
   -2.1056   -6.8911    0.0066 C   0  0
   13.6408   -3.8172    0.6975 C   0  0
   -2.0876    0.3024   -0.0238 C   0  0
   -3.3062   -0.2518   -0.0368 C   0  0
   -0.7687   -9.3327    0.0014 C   0  0
   -2.7987   -8.0278    0.0007 C   0  0
   14.6988   -4.6287    0.7022 C   0  0
   16.1387   -2.8735   -0.1395 C   0  0
   16.0063   -4.1362    0.2617 C   0  0
   -2.0995   -9.3077   -0.0020 C   0  0
   11.0159   -2.7902    0.9773 H   0  0
    5.7740    0.4330   -0.1904 H   0  0
    6.2235   -3.7560    0.5702 H   0  0
    0.8637   -5.6509   -0.8616 H   0  0
    0.8382   -5.6460    0.9185 H   0  0
   12.7000   -0.8155   -0.6718 H   0  0
   12.6232   -0.8434    1.1066 H   0  0
    2.2488   -4.6209    0.2730 H   0  0
    1.3998   -0.4193   -0.1914 H   0  0
    3.7589    0.1016   -0.1287 H   0  0
    4.7105   -4.0621    0.3597 H   0  0
   12.8314   -3.7077   -1.4576 H   0  0
    0.1183   -0.0990    0.0044 H   0  0
   -4.4224   -2.1890   -0.0488 H   0  0
   15.0893   -0.9460   -0.4774 H   0  0
    1.0832   -8.1066    0.0115 H   0  0
   -2.6361   -5.9389    0.0085 H   0  0
   12.6715   -4.1866    1.0324 H   0  0
   -1.9871    1.3877   -0.0238 H   0  0
   -4.1942    0.3803   -0.0458 H   0  0
   -0.2431  -10.2875   -0.0008 H   0  0
   -3.8884   -8.0019   -0.0022 H   0  0
   14.5906   -5.6611    1.0345 H   0  0
   17.1123   -2.5037   -0.4611 H   0  0
   16.8691   -4.8022    0.2625 H   0  0
   -2.6644  -10.2398   -0.0068 H   0  0
  2  1  2  0
  3  1  1  0
  4  9  2  0
  5  4  1  0
  6  2  1  0
  7  3  1  0
  8 13  2  0
  9 14  1  0
 10 17  1  0
  5 11  1  0
 12 11  1  0
 13 10  1  0
 14 10  2  0
 15  2  1  0
 16  1  1  0
 17 22  1  0
 18 11  1  0
 19 12  2  0
 20 15  2  0
 21 15  1  0
 22 21  2  0
 23 20  1  0
 24  8  1  0
 25  9  1  0
 26 12  1  0
 27 16  1  0
 28 18  1  0
 29  6  2  0
 30  7  2  0
 31 28  2  0
 32 27  2  0
 33 27  1  0
 34 28  1  0
 35 29  1  0
 36 30  1  0
 37 32  1  0
 38 33  2  0
 39 34  2  0
 40 31  1  0
 41 39  1  0
 42 38  1  0
  6  7  1  0
 35 36  2  0
 23 17  2  0
 37 42  2  0
  8  4  1  0
 40 41  2  0
 11 43  1  0
 13 44  1  0
 14 45  1  0
 16 46  1  0
 16 47  1  0
 18 48  1  0
 18 49  1  0
 20 50  1  0
 21 51  1  0
 22 52  1  0
 23 53  1  0
 26 54  1  0
 29 55  1  0
 30 56  1  0
 31 57  1  0
 32 58  1  0
 33 59  1  0
 34 60  1  0
 35 61  1  0
 36 62  1  0
 37 63  1  0
 38 64  1  0
 39 65  1  0
 40 66  1  0
 41 67  1  0
 42 68  1  0
M  END
> <Name>
Molecule

> <Clean Energy>
54.0745

> <From>
www.bindingDB.org

> <BindingDB Reactant_set_id>
50154629

> <Ligand InChI>
InChI=1S/C36H26Br2O3S/c37-29-21-27(22-30(38)35(29)41-31(36(39)40)19-23-9-3-1-4-10-23)25-15-17-26(18-16-25)34-28-13-7-8-14-32(28)42-33(34)20-24-11-5-2-6-12-24/h1-18,21-22,31H,19-20H2,(H,39,40)

> <Ligand InChI Key>
KKUFFRZDMKEAGO-UHFFFAOYSA-N

> <BindingDB MonomerID>
50086947

> <BindingDB Ligand Name>
2-[4'-(2-Benzyl-benzo[b]thiophen-3-yl)-3,5-dibromo-biphenyl-4-yloxy]-3-phenyl-propionic acid::CHEMBL25321

> <Target Name>
Tyrosine-protein phosphatase non-receptor type 1

> <Target Source Organism According to Curator or DataSource>
Homo sapiens

> <IC50 (nM)>
25

> <Curation/DataSource>
ChEMBL

> <Article DOI>
10.1021/jm990560c

> <BindingDB Entry DOI>
10.7270/Q2W958FT

> <PMID>
10753467

> <Authors>
Malamas, MS; Sredy, J; Moxham, C; Katz, A; Xu, W; McDevitt, R; Adebayo, FO; Sawicki, DR; Seestaller, L; Sullivan, D; Taylor, JR

> <Institution>
Wyeth-Ayerst Research

> <Link to Ligand in BindingDB>
http://www.bindingdb.org/bind/chemsearch/marvin/MolStructure.jsp?monomerid=50086947

> <Link to Ligand-Target Pair in BindingDB>
http://www.bindingdb.org/jsp/dbsearch/PrimarySearch_ki.jsp?energyterm=kJ/mole&tag=pol&polymerid=2622&target=Tyrosine-protein+phosphatase+non-receptor+type+1&column=ki&startPg=0&Increment=50&submit=Sea
rch
http://www.bindingdb.org/jsp/dbsearch/PrimarySearch_ki.jsp?energyterm=kJ/mole&tag=r21&monomerid=50086947&enzyme=Tyrosine-protein+phosphatase+non-receptor+type+1&column=ki&startPg=0&Increment=50&submit
=Search

> <PubChem CID of Ligand>
22462595

> <PubChem SID of Ligand>
103986058

> <ChEMBL ID of Ligand>
CHEMBL25321

> <ZINC ID of Ligand>
ZINC28758464

> <Number of Protein Chains in Target (bigger than 1 implies a multichain complex)>
1

> <BindingDB Target Chain Sequence>
MEMEKEFEQIDKSGSWAAIYQDIRHEASDFPCRVAKLPKNKNRNRYRDVSPFDHSRIKLHQEDNDYINASLIKMEEAQRSYILTQGPLPNTCGHFWEMVWEQKSRGVVMLNRVMEKGSLKCAQYWPQKEEKEMIFEDTNLKLTLISEDIKSYYTVRQLELENLTTQETREILHFHYTTWPDFGVPESPASFLNFLFKVRE
SGSLSPEHGPVVVHCSAGIGRSGTFCLADTCLLLMDKRKDPSSVDIKKVLLEMRKFRMGLIQTADQLRFSYLAVIEGAKFIMGDSSVQDQWKELSHEDLEPPPEHIPPPPRPPKRILEPHNGKCREFFPNHQWVKEETQEDKDCPIKEEKGSPLNAAPYGIESMSQDTEVRSRVVGGSLRGAQAASPAKGEPSLPEKDED
HALSYWKPFLVNMCVATVLTAGAYLCYRFLFNSNT

> <PDB ID(s) of Target Chain>
1BZJ,1G7G,1GFY,1JF7,1KAK,1KAV,1LQF,1NL9,1NNY,1NO6,1NZ7,1OEM,1OEO,1OES,1OET,1OEU,1OEV,1ONY,1ONZ,1PH0,1PXH,1PYN,1Q1M,1Q6J,1Q6M,1Q6N,1Q6P,1Q6S,1Q6T,1QXK,1SUG,1T48,1T49,1T4J,1WAX,1XBO,2AZR,2B07,2BGD,2BGE,
2CM2,2CM3,2CM7,2CM8,2CMA,2CMB,2CMC,2CNE,2CNF,2CNG,2CNH,2CNI,2F6T,2F6V,2F6W,2F6Y,2F6Z,2F70,2F71,2FJN,2H4G,2H4K,2HB1,2HNP,2HNQ,2QBP,2QBQ,2QBR,2QBS,2VEU,2VEV,2VEW,2VEX,2VEY,2ZMM,2ZN7,3A5J,3CWE,3D9C,3EAX,
3EB1,3EU0,3I7Z,3I80,3SME,4BJO,4I8N,4QBW,4Y14,5K9V,5K9W,5KA0,5KA1,5T19,6B90,6NTP,6W30,7KEY,7KLX,7LFO,7MN9,7MNA,8DU7,8G65,8G67,8G68,8G69,8G6A,8SKL

> <UniProt (SwissProt) Recommended Name of Target Chain>
Tyrosine-protein phosphatase non-receptor type 1

> <UniProt (SwissProt) Entry Name of Target Chain>
PTN1_HUMAN

> <UniProt (SwissProt) Primary ID of Target Chain>
P18031

> <UniProt (SwissProt) Secondary ID(s) of Target Chain>
Q5TGD8 Q9BQV9 Q9NQQ4

$$$$
Molecule
  SciTegic10242319433D

 83 89  0  0  0  0            999 V2000
   -0.0405   -5.9640   -0.0016 C   0  0
    0.5436   -4.7113   -0.0099 C   0  0
   -1.7451   -5.7887    0.0109 S   0  0
    9.2147   -2.5683    0.0894 C   0  0
    8.7155   -4.0283    0.0142 C   0  0
    8.2527   -1.5558    0.0295 C   0  0
   -0.5879   -3.6123   -0.0034 C   0  0
   -1.8931   -4.1796    0.0064 C   0  0
    7.4087   -4.3051   -0.0450 C   0  0
    6.7916   -1.9731   -0.0284 C   0  0
    6.3966   -3.2532   -0.0469 C   0  0
   10.7276   -2.5083    0.2589 O   0  0
    2.1076   -4.3551   -0.0254 C   0  0
    0.6652   -7.3596   -0.0033 C   0  0
    8.4700    0.0130   -0.0022 C   0  0
    9.6989   -5.2215   -0.0001 C   0  0
    4.9089   -3.6292   -0.0560 C   0  0
   12.8796   -1.3110    0.1210 C   0  0
   13.4645   -0.2200    0.1085 O   0  0
    3.0724   -5.2858   -0.0401 C   0  0
    2.5658   -2.9330   -0.0270 C   0  0
    3.8641   -2.5969   -0.0418 C   0  0
    4.5264   -4.9109   -0.0534 C   0  0
   11.5048   -1.3860    0.7081 C   0  0
    9.6332    0.5583   -0.3114 C   0  0
    7.3583    0.9550    0.2659 C   0  0
    9.2381   -6.4746   -0.0065 C   0  0
   11.1619   -5.0351   -0.0142 C   0  0
   11.5135   -7.4041   -0.0206 C   0  0
    8.9436    2.8082   -0.0334 C   0  0
   13.4646   -2.4178   -0.4717 O   0  0
   -0.2352   -8.6403   -0.0012 C   0  0
   10.1923   -7.6196   -0.0144 C   0  0
    7.5858    2.2815    0.2507 C   0  0
   12.0091   -6.0532   -0.0240 C   0  0
    9.9050    1.9544   -0.3164 C   0  0
   -0.4572   -2.2877   -0.0071 C   0  0
    9.2337    4.1870    0.0077 O   0  0
   12.4465   -8.4591   -0.0211 O   0  0
   -3.0170   -3.4753    0.0107 C   0  0
   -1.5689   -8.5935   -0.0018 C   0  0
    0.4138   -9.9595    0.0004 C   0  0
   10.6451    4.4264   -0.2459 C   0  0
   11.8088   -9.7377   -0.0087 C   0  0
   -1.6847   -1.4503   -0.0017 C   0  0
   -2.8981   -2.0166    0.0061 C   0  0
   -0.3174  -11.0761    0.0012 C   0  0
   -2.3758   -9.8153   -0.0006 C   0  0
   -1.7786  -11.0027    0.0007 C   0  0
    7.0899   -5.3464   -0.0933 H   0  0
    6.0298   -1.1940   -0.0562 H   0  0
    1.2905   -7.4050   -0.8949 H   0  0
    1.2947   -7.4051    0.8854 H   0  0
    2.7948   -6.3399   -0.0425 H   0  0
    1.8180   -2.1401   -0.0158 H   0  0
    4.1474   -1.5444   -0.0434 H   0  0
    5.2824   -5.6961   -0.0609 H   0  0
   11.6001   -1.4495    1.7920 H   0  0
   10.9707   -0.4736    0.4426 H   0  0
   10.4471   -0.1136   -0.5837 H   0  0
    6.3585    0.5747    0.4750 H   0  0
    8.1641   -6.6603   -0.0060 H   0  0
   11.5611   -4.0208   -0.0168 H   0  0
   13.5430   -3.1923    0.2329 H   0  0
    9.8112   -8.6408   -0.0151 H   0  0
    6.7671    2.9735    0.4484 H   0  0
   13.0831   -5.8675   -0.0345 H   0  0
   10.9055    2.3162   -0.5535 H   0  0
    0.5304   -1.8265   -0.0141 H   0  0
   -3.9913   -3.9639    0.0174 H   0  0
   -2.0684   -7.6247   -0.0031 H   0  0
    1.5018  -10.0262    0.0009 H   0  0
   10.8449    5.4972   -0.2090 H   0  0
   10.9080    4.0419   -1.2314 H   0  0
   11.2421    3.9196    0.5124 H   0  0
   12.5659  -10.5219   -0.0096 H   0  0
   11.1802   -9.8394   -0.8934 H   0  0
   11.1933   -9.8287    0.8863 H   0  0
   -1.5965   -0.3639   -0.0040 H   0  0
   -3.7929   -1.3942    0.0089 H   0  0
    0.1767  -12.0477    0.0023 H   0  0
   -3.4639   -9.7512   -0.0008 H   0  0
   -2.3737  -11.9159    0.0014 H   0  0
  2  1  2  0
  3  1  1  0
  4  6  2  0
  5  9  2  0
  6 10  1  0
  7  2  1  0
  8  3  1  0
  9 11  1  0
 10 11  2  0
 11 17  1  0
 12  4  1  0
 13  2  1  0
 14  1  1  0
 15  6  1  0
 16  5  1  0
 17 22  1  0
 18 24  1  0
 19 18  2  0
 20 13  2  0
 21 13  1  0
 22 21  2  0
 23 20  1  0
 24 12  1  0
 25 15  2  0
 26 15  1  0
 27 16  2  0
 28 16  1  0
 29 35  1  0
 30 34  1  0
 31 18  1  0
 32 14  1  0
 33 27  1  0
 34 26  2  0
 35 28  2  0
 36 25  1  0
 37  7  2  0
 38 30  1  0
 39 29  1  0
 40  8  2  0
 41 32  2  0
 42 32  1  0
 43 38  1  0
 44 39  1  0
 45 37  1  0
 46 40  1  0
 47 42  2  0
 48 41  1  0
 49 47  1  0
  7  8  1  0
 45 46  2  0
 23 17  2  0
 48 49  2  0
  5  4  1  0
 36 30  2  0
 33 29  2  0
  9 50  1  0
 10 51  1  0
 14 52  1  0
 14 53  1  0
 20 54  1  0
 21 55  1  0
 22 56  1  0
 23 57  1  0
 24 58  1  0
 24 59  1  0
 25 60  1  0
 26 61  1  0
 27 62  1  0
 28 63  1  0
 31 64  1  0
 33 65  1  0
 34 66  1  0
 35 67  1  0
 36 68  1  0
 37 69  1  0
 40 70  1  0
 41 71  1  0
 42 72  1  0
 43 73  1  0
 43 74  1  0
 43 75  1  0
 44 76  1  0
 44 77  1  0
 44 78  1  0
 45 79  1  0
 46 80  1  0
 47 81  1  0
 48 82  1  0
 49 83  1  0
M  END
> <Name>
Molecule

> <Clean Energy>
74.3485

> <From>
www.bindingDB.org

> <BindingDB Reactant_set_id>
50154633

> <Ligand InChI>
InChI=1S/C43H34O5S/c1-46-34-20-16-30(17-21-34)37-25-33(26-38(43(37)48-27-41(44)45)31-18-22-35(47-2)23-19-31)29-12-14-32(15-13-29)42-36-10-6-7-11-39(36)49-40(42)24-28-8-4-3-5-9-28/h3-23,25-26H,24,27H2,
1-2H3,(H,44,45)

> <Ligand InChI Key>
MXPGUEIHEJPIBY-UHFFFAOYSA-N

> <BindingDB MonomerID>
50086950

> <BindingDB Ligand Name>
2-[4-[4-(2-benzylbenzo[b]thiophen-3-yl)phenyl]-2,6-di(4-methoxyphenyl)phenoxy]acetic acid::2-{4-[4-(2-benzyl-1-benzothiophen-3-yl)phenyl]-2,6-bis(4-methoxyphenyl)phenoxy}acetic acid::CHEMBL284471::[4'
-(2-Benzyl-benzo[b]thiophen-3-yl)-biphenyl-4-yloxy, 3,5 {bis-(4-methoxy-phenyl)}]-acetic acid

> <Target Name>
Tyrosine-protein phosphatase non-receptor type 1

> <Target Source Organism According to Curator or DataSource>
Homo sapiens

> <IC50 (nM)>
25

> <Curation/DataSource>
ChEMBL

> <Article DOI>
10.1021/jm990560c

> <BindingDB Entry DOI>
10.7270/Q2W958FT

> <PMID>
10753467

> <Authors>
Malamas, MS; Sredy, J; Moxham, C; Katz, A; Xu, W; McDevitt, R; Adebayo, FO; Sawicki, DR; Seestaller, L; Sullivan, D; Taylor, JR

> <Institution>
Wyeth-Ayerst Research

> <Link to Ligand in BindingDB>
http://www.bindingdb.org/bind/chemsearch/marvin/MolStructure.jsp?monomerid=50086950

> <Link to Ligand-Target Pair in BindingDB>
http://www.bindingdb.org/jsp/dbsearch/PrimarySearch_ki.jsp?energyterm=kJ/mole&tag=pol&polymerid=2622&target=Tyrosine-protein+phosphatase+non-receptor+type+1&column=ki&startPg=0&Increment=50&submit=Sea
rch
http://www.bindingdb.org/jsp/dbsearch/PrimarySearch_ki.jsp?energyterm=kJ/mole&tag=r21&monomerid=50086950&enzyme=Tyrosine-protein+phosphatase+non-receptor+type+1&column=ki&startPg=0&Increment=50&submit
=Search

> <PubChem CID of Ligand>
9961320

> <PubChem SID of Ligand>
103986061

> <ChEMBL ID of Ligand>
CHEMBL284471

> <ZINC ID of Ligand>
ZINC28758347

> <Number of Protein Chains in Target (bigger than 1 implies a multichain complex)>
1

> <BindingDB Target Chain Sequence>
MEMEKEFEQIDKSGSWAAIYQDIRHEASDFPCRVAKLPKNKNRNRYRDVSPFDHSRIKLHQEDNDYINASLIKMEEAQRSYILTQGPLPNTCGHFWEMVWEQKSRGVVMLNRVMEKGSLKCAQYWPQKEEKEMIFEDTNLKLTLISEDIKSYYTVRQLELENLTTQETREILHFHYTTWPDFGVPESPASFLNFLFKVRE
SGSLSPEHGPVVVHCSAGIGRSGTFCLADTCLLLMDKRKDPSSVDIKKVLLEMRKFRMGLIQTADQLRFSYLAVIEGAKFIMGDSSVQDQWKELSHEDLEPPPEHIPPPPRPPKRILEPHNGKCREFFPNHQWVKEETQEDKDCPIKEEKGSPLNAAPYGIESMSQDTEVRSRVVGGSLRGAQAASPAKGEPSLPEKDED
HALSYWKPFLVNMCVATVLTAGAYLCYRFLFNSNT

> <PDB ID(s) of Target Chain>
1BZJ,1G7G,1GFY,1JF7,1KAK,1KAV,1LQF,1NL9,1NNY,1NO6,1NZ7,1OEM,1OEO,1OES,1OET,1OEU,1OEV,1ONY,1ONZ,1PH0,1PXH,1PYN,1Q1M,1Q6J,1Q6M,1Q6N,1Q6P,1Q6S,1Q6T,1QXK,1SUG,1T48,1T49,1T4J,1WAX,1XBO,2AZR,2B07,2BGD,2BGE,
2CM2,2CM3,2CM7,2CM8,2CMA,2CMB,2CMC,2CNE,2CNF,2CNG,2CNH,2CNI,2F6T,2F6V,2F6W,2F6Y,2F6Z,2F70,2F71,2FJN,2H4G,2H4K,2HB1,2HNP,2HNQ,2QBP,2QBQ,2QBR,2QBS,2VEU,2VEV,2VEW,2VEX,2VEY,2ZMM,2ZN7,3A5J,3CWE,3D9C,3EAX,
3EB1,3EU0,3I7Z,3I80,3SME,4BJO,4I8N,4QBW,4Y14,5K9V,5K9W,5KA0,5KA1,5T19,6B90,6NTP,6W30,7KEY,7KLX,7LFO,7MN9,7MNA,8DU7,8G65,8G67,8G68,8G69,8G6A,8SKL

> <UniProt (SwissProt) Recommended Name of Target Chain>
Tyrosine-protein phosphatase non-receptor type 1

> <UniProt (SwissProt) Entry Name of Target Chain>
PTN1_HUMAN

> <UniProt (SwissProt) Primary ID of Target Chain>
P18031

> <UniProt (SwissProt) Secondary ID(s) of Target Chain>
Q5TGD8 Q9BQV9 Q9NQQ4

$$$$
Molecule
  SciTegic10242319433D

 68 73  0  0  0  0            999 V2000
   -3.5147   -3.5735    0.1342 C   0  0
   -4.2002   -4.8945   -0.0045 C   0  0
   -3.4071   -5.9644   -0.1241 C   0  0
   -1.9393   -5.8536   -0.1241 C   0  0
   -1.3417   -4.6714    0.0080 C   0  0
   -2.1772   -3.4713    0.1463 C   0  0
    0.1607   -4.6076    0.0073 C   0  0
    0.9041   -5.8168   -0.2555 C   0  0
    2.2337   -5.8121   -0.2840 C   0  0
    3.0259   -4.5894   -0.0397 C   0  0
    2.3434   -3.4456    0.2367 C   0  0
    0.8322   -3.4761    0.2377 C   0  0
   -5.7901   -5.0101   -0.0062 C   0  0
   -8.2052   -5.7658   -0.0149 S   0  0
   -6.5411   -6.1688   -0.0217 C   0  0
   -8.1201   -4.1411    0.0044 C   0  0
   -6.7454   -3.7655    0.0105 C   0  0
   -6.4207   -2.4746    0.0206 C   0  0
   -7.5122   -1.4673    0.0293 C   0  0
   -8.7954   -1.8511    0.0247 C   0  0
   -9.1283   -3.2791    0.0105 C   0  0
    4.4843   -4.8634   -0.1137 O   0  0
   -6.0176   -7.6381   -0.0339 C   0  0
   -7.0330   -8.8007   -0.0190 C   0  0
   -8.3531   -8.6164   -0.0093 C   0  0
   -9.2707   -9.7582    0.0046 C   0  0
   -8.7891  -10.9983    0.0079 C   0  0
   -7.3435  -11.2146   -0.0023 C   0  0
   -6.5116  -10.1736   -0.0151 C   0  0
    3.1428   -1.7595    0.6151 Br  0  0
    5.6720   -4.0122    0.1714 C   0  0  2  0  0  0
    5.8929   -2.6919   -0.6810 C   0  0
    7.1626   -1.8416   -0.2864 C   0  0
    8.0982   -2.2867    0.5629 C   0  0
    9.2700   -1.4686    0.8997 C   0  0
    9.4083   -0.2564    0.3706 C   0  0
    8.3874    0.2534   -0.5462 C   0  0
    7.3276   -0.4957   -0.8608 C   0  0
    6.7966   -5.0119   -0.0892 C   0  0
    6.7625   -6.1219    0.4517 O   0  0
    7.7753   -4.7472   -1.0494 O   0  0
    3.1526   -7.4426   -0.6124 Br  0  0
   -4.1171   -2.6699    0.2279 H   0  0
   -3.8619   -6.9499   -0.2248 H   0  0
   -1.3329   -6.7526   -0.2339 H   0  0
   -1.7085   -2.4937    0.2593 H   0  0
    0.3671   -6.7486   -0.4335 H   0  0
    0.2795   -2.5566    0.4303 H   0  0
   -5.3761   -2.1634    0.0225 H   0  0
   -7.2665   -0.4054    0.0395 H   0  0
   -9.5895   -1.1045    0.0316 H   0  0
  -10.1639   -3.6191    0.0052 H   0  0
   -5.4149   -7.7536   -0.9347 H   0  0
   -5.3844   -7.7575    0.8453 H   0  0
   -8.7549   -7.6031   -0.0116 H   0  0
  -10.3479   -9.5917    0.0122 H   0  0
   -9.4697  -11.8497    0.0181 H   0  0
   -6.9452  -12.2292    0.0007 H   0  0
   -5.4348  -10.3426   -0.0227 H   0  0
    5.6717   -3.7515    1.2298 H   0  0
    5.9916   -2.9791   -1.7278 H   0  0
    5.0130   -2.0604   -0.5583 H   0  0
    7.9875   -3.2737    1.0119 H   0  0
   10.0263   -1.8548    1.5832 H   0  0
   10.2768    0.3539    0.6181 H   0  0
    8.4929    1.2501   -0.9746 H   0  0
    6.5774   -0.1071   -1.5494 H   0  0
    7.3221   -4.6340   -1.9899 H   0  0
 19 20  2  0
  2  3  2  0
 20 21  1  0
 21 16  2  0
 10 11  2  0
 10 22  1  0
  5  6  1  0
 15 23  1  0
 11 12  1  0
 23 24  1  0
 12  7  2  0
 24 25  2  0
  5  7  1  0
 25 26  1  0
 13 17  1  0
 26 27  2  0
  6  1  2  0
 27 28  1  0
  1  2  1  0
 28 29  2  0
 29 24  1  0
  3  4  1  0
 11 30  1  0
 16 14  1  0
 31 22  1  0
 14 15  1  0
 31 32  1  0
 15 13  2  0
 32 33  1  0
  2 13  1  0
 33 34  2  0
  7  8  1  0
 34 35  1  0
 35 36  2  0
 16 17  1  0
 36 37  1  0
  8  9  2  0
 37 38  2  0
 38 33  1  0
 17 18  2  0
 31 39  1  0
  4  5  2  0
 39 40  2  0
 18 19  1  0
 39 41  1  0
  9 10  1  0
  9 42  1  0
  1 43  1  0
  3 44  1  0
  4 45  1  0
  6 46  1  0
  8 47  1  0
 12 48  1  0
 18 49  1  0
 19 50  1  0
 20 51  1  0
 21 52  1  0
 23 53  1  0
 23 54  1  0
 25 55  1  0
 26 56  1  0
 27 57  1  0
 28 58  1  0
 29 59  1  0
 31 60  1  0
 32 61  1  0
 32 62  1  0
 34 63  1  0
 35 64  1  0
 36 65  1  0
 37 66  1  0
 38 67  1  0
 41 68  1  0
M  END
> <Name>
Molecule

> <Clean Energy>
68.0738

> <From>
www.bindingDB.org

> <BindingDB Reactant_set_id>
51015937

> <Ligand InChI>
InChI=1S/C36H26Br2O3S/c37-29-21-27(22-30(38)35(29)41-31(36(39)40)19-23-9-3-1-4-10-23)25-15-17-26(18-16-25)34-28-13-7-8-14-32(28)42-33(34)20-24-11-5-2-6-12-24/h1-18,21-22,31H,19-20H2,(H,39,40)/t31-/m1/
s1

> <Ligand InChI Key>
KKUFFRZDMKEAGO-WJOKGBTCSA-N

> <BindingDB MonomerID>
50416047

> <BindingDB Ligand Name>
CHEMBL1083714

> <Target Name>
Tyrosine-protein phosphatase non-receptor type 1

> <Target Source Organism According to Curator or DataSource>
Homo sapiens

> <IC50 (nM)>
25.12

> <Curation/DataSource>
ChEMBL

> <Article DOI>
10.1016/j.bmcl.2010.04.033

> <BindingDB Entry DOI>
10.7270/Q27D2WCC

> <PMID>
20452766

> <Authors>
Cheng, Y; Zhou, M; Tung, CH; Ji, M; Zhang, F

> <Institution>
Tsinghua University

> <Link to Ligand in BindingDB>
http://www.bindingdb.org/bind/chemsearch/marvin/MolStructure.jsp?monomerid=50416047

> <Link to Ligand-Target Pair in BindingDB>
http://www.bindingdb.org/jsp/dbsearch/PrimarySearch_ki.jsp?energyterm=kJ/mole&tag=pol&polymerid=2622&target=Tyrosine-protein+phosphatase+non-receptor+type+1&column=ki&startPg=0&Increment=50&submit=Sea
rch
http://www.bindingdb.org/jsp/dbsearch/PrimarySearch_ki.jsp?energyterm=kJ/mole&tag=r21&monomerid=50416047&enzyme=Tyrosine-protein+phosphatase+non-receptor+type+1&column=ki&startPg=0&Increment=50&submit
=Search

> <PubChem CID of Ligand>
9810271

> <PubChem SID of Ligand>
163365071

> <ChEMBL ID of Ligand>
CHEMBL1083714

> <ZINC ID of Ligand>
ZINC28758461

> <Number of Protein Chains in Target (bigger than 1 implies a multichain complex)>
1

> <BindingDB Target Chain Sequence>
MEMEKEFEQIDKSGSWAAIYQDIRHEASDFPCRVAKLPKNKNRNRYRDVSPFDHSRIKLHQEDNDYINASLIKMEEAQRSYILTQGPLPNTCGHFWEMVWEQKSRGVVMLNRVMEKGSLKCAQYWPQKEEKEMIFEDTNLKLTLISEDIKSYYTVRQLELENLTTQETREILHFHYTTWPDFGVPESPASFLNFLFKVRE
SGSLSPEHGPVVVHCSAGIGRSGTFCLADTCLLLMDKRKDPSSVDIKKVLLEMRKFRMGLIQTADQLRFSYLAVIEGAKFIMGDSSVQDQWKELSHEDLEPPPEHIPPPPRPPKRILEPHNGKCREFFPNHQWVKEETQEDKDCPIKEEKGSPLNAAPYGIESMSQDTEVRSRVVGGSLRGAQAASPAKGEPSLPEKDED
HALSYWKPFLVNMCVATVLTAGAYLCYRFLFNSNT

> <PDB ID(s) of Target Chain>
1BZJ,1G7G,1GFY,1JF7,1KAK,1KAV,1LQF,1NL9,1NNY,1NO6,1NZ7,1OEM,1OEO,1OES,1OET,1OEU,1OEV,1ONY,1ONZ,1PH0,1PXH,1PYN,1Q1M,1Q6J,1Q6M,1Q6N,1Q6P,1Q6S,1Q6T,1QXK,1SUG,1T48,1T49,1T4J,1WAX,1XBO,2AZR,2B07,2BGD,2BGE,
2CM2,2CM3,2CM7,2CM8,2CMA,2CMB,2CMC,2CNE,2CNF,2CNG,2CNH,2CNI,2F6T,2F6V,2F6W,2F6Y,2F6Z,2F70,2F71,2FJN,2H4G,2H4K,2HB1,2HNP,2HNQ,2QBP,2QBQ,2QBR,2QBS,2VEU,2VEV,2VEW,2VEX,2VEY,2ZMM,2ZN7,3A5J,3CWE,3D9C,3EAX,
3EB1,3EU0,3I7Z,3I80,3SME,4BJO,4I8N,4QBW,4Y14,5K9V,5K9W,5KA0,5KA1,5T19,6B90,6NTP,6W30,7KEY,7KLX,7LFO,7MN9,7MNA,8DU7,8G65,8G67,8G68,8G69,8G6A,8SKL

> <UniProt (SwissProt) Recommended Name of Target Chain>
Tyrosine-protein phosphatase non-receptor type 1

> <UniProt (SwissProt) Entry Name of Target Chain>
PTN1_HUMAN

> <UniProt (SwissProt) Primary ID of Target Chain>
P18031

> <UniProt (SwissProt) Secondary ID(s) of Target Chain>
Q5TGD8 Q9BQV9 Q9NQQ4

$$$$
Molecule
  SciTegic10242319433D

  5  4  0  0  0  0            999 V2000
    3.2095   -5.2087    0.0000 V   0  0
    3.2092   -7.0873   -0.0006 O   0  5
    3.2100   -3.3301    0.0004 O   0  5
    5.0860   -5.2091   -0.0011 O   0  5
    1.5342   -5.2084    0.0008 O   0  0
  2  1  1  0
  3  1  1  0
  4  1  1  0
  5  1  2  0
M  CHG  3   2  -1   3  -1   4  -1
M  END
> <Name>
Molecule

> <Clean Energy>
0.186235

> <From>
www.bindingDB.org

> <BindingDB Reactant_set_id>
424013

> <Ligand InChI>
InChI=1S/4O.V/q;3*-1;

> <Ligand InChI Key>
LSGOVYNHVSXFFJ-UHFFFAOYSA-N

> <BindingDB MonomerID>
50391109

> <BindingDB Ligand Name>
CHEMBL179166::Sodium orthovanadate (SOV)::Vanadates

> <Target Name>
Tyrosine-protein phosphatase non-receptor type 1 [1-321]

> <IC50 (nM)>
25.39

> <pH>
7.5

> <Temp C>
37

> <Curation/DataSource>
Curated from the literature by BindingDB

> <Article DOI>
10.3109/14756366.2012.715286

> <BindingDB Entry DOI>
10.7270/Q2FN1530

> <PMID>
22957721

> <PubChem AID>
aid1803323

> <Authors>
Adisakwattana, S; Pongsuwan, J; Wungcharoen, C; Yibchok-anun, S

> <Institution>
Chulalongkorn University

> <Link to Ligand in BindingDB>
http://www.bindingdb.org/bind/chemsearch/marvin/MolStructure.jsp?monomerid=50391109

> <Link to Ligand-Target Pair in BindingDB>
http://www.bindingdb.org/jsp/dbsearch/PrimarySearch_ki.jsp?energyterm=kJ/mole&tag=pol&polymerid=10662&target=Tyrosine-protein+phosphatase+non-receptor+type+1+%5B1-321%5D&column=ki&startPg=0&Increment=
50&submit=Search
http://www.bindingdb.org/jsp/dbsearch/PrimarySearch_ki.jsp?energyterm=kJ/mole&tag=r21&monomerid=50391109&enzyme=Tyrosine-protein+phosphatase+non-receptor+type+1+%5B1-321%5D&column=ki&startPg=0&Increme
nt=50&submit=Search

> <Ligand HET ID in PDB>
VO4

> <PDB ID(s) for Ligand-Target Complex>
6DT6,3I7Z,1VOM,2V26,6PHS,1DFL,2HY3,3RNT,5I0I,3OMX,3BZ9,3BZ8,1QVI,3GW8,3T00,2F43,2AZD,1RPT,1LKX,1RFI,1RFF,5AA6,8AJ5,3W36,3F9B,1RGT,1RGU,1RG1,1RG2,3IGC,1NOP,6LVQ,7QWI,5HMP,5N69,7ZO9,6NPZ,4ZG4,3MGV,4KNW,
4CIT,3MYH,6XEF,6XEA,4E7S,1VFZ,3GP5,6YSY,4E7Z,7D0A,2JLX,4USZ,2B9S,1Z12,3P20,1J9L,2V6E,3BZ7,3Q8Y,7EZN,3PUV,6PHA,1UZI,7BCW,3QKQ,7OU0,2D1G,3I80,7ZRD,1MU9,1RH0,1IDQ,1IDU,4DBR,1QI9,4ZN5,1BO6,3MKD,5OFR,6PGT,
6PG0,7MSM,7MSZ,4ZI4,7ZNU,4RI4,6PM8,6VQT,5JNW,2G8H,3QCD,3QCC,3B5Z,6I7E,7N5A,7N5B,3S3F,3ZWU,3P2U,4DZ6,6YCX,2GSO,1YV3,2QWM,4E0G,1VNG,1VNF,1VNE,1VNC,1VNI,1VNH,2I4E,2I42,7MPC,5BZX,6S3N,7L0M,7L0H,6DR7

> <PubChem CID of Ligand>
61672

> <PubChem SID of Ligand>
160870192

> <ChEBI ID of Ligand>
35607

> <ChEMBL ID of Ligand>
CHEMBL179166

> <Number of Protein Chains in Target (bigger than 1 implies a multichain complex)>
1

> <BindingDB Target Chain Sequence>
MEMEKEFEQIDKSGSWAAIYQDIRHEASDFPCRVAKLPKNKNRNRYRDVSPFDHSRIKLHQEDNDYINASLIKMEEAQRSYILTQGPLPNTCGHFWEMVWEQKSRGVVMLNRVMEKGSLKCAQYWPQKEEKEMIFEDTNLKLTLISEDIKSYYTVRQLELENLTTQETREILHFHYTTWPDFGVPESPASFLNFLFKVRE
SGSLSPEHGPVVVHCSAGIGRSGTFCLADTCLLLMDKRKDPSSVDIKKVLLEMRKFRMGLIQTADQLRFSYLAVIEGAKFIMGDSSVQDQWKELSHEDLEPPPEHIPPPPRPPKRILEPHN

> <PDB ID(s) of Target Chain>
1BZJ,1G7G,1GFY,1JF7,1KAK,1KAV,1LQF,1NL9,1NNY,1NO6,1NZ7,1OEM,1OEO,1OES,1OET,1OEU,1OEV,1ONY,1ONZ,1PH0,1PXH,1PYN,1Q1M,1Q6J,1Q6M,1Q6N,1Q6P,1Q6S,1Q6T,1QXK,1SUG,1T48,1T49,1T4J,1WAX,1XBO,2AZR,2B07,2BGD,2BGE,
2CM2,2CM3,2CM7,2CM8,2CMA,2CMB,2CMC,2CNE,2CNF,2CNG,2CNH,2CNI,2F6T,2F6V,2F6W,2F6Y,2F6Z,2F70,2F71,2FJN,2H4G,2H4K,2HB1,2HNP,2HNQ,2QBP,2QBQ,2QBR,2QBS,2VEU,2VEV,2VEW,2VEX,2VEY,2ZMM,2ZN7,3A5J,3CWE,3D9C,3EAX,
3EB1,3EU0,3I7Z,3I80,3SME,4BJO,4I8N,4QBW,4Y14,5K9V,5K9W,5KA0,5KA1,5T19,6B90,6NTP,6W30,7KEY,7KLX,7LFO,7MN9,7MNA,8DU7,8G65,8G67,8G68,8G69,8G6A,8SKL

> <UniProt (SwissProt) Recommended Name of Target Chain>
Tyrosine-protein phosphatase non-receptor type 1

> <UniProt (SwissProt) Entry Name of Target Chain>
PTN1_HUMAN

> <UniProt (SwissProt) Primary ID of Target Chain>
P18031

> <UniProt (SwissProt) Secondary ID(s) of Target Chain>
Q5TGD8 Q9BQV9 Q9NQQ4

$$$$
Molecule
  SciTegic10242319433D

 66 71  0  0  0  0            999 V2000
   11.0940   -2.5735   -0.8315 S   0  0
   -0.4723   -5.8414    0.0155 C   0  0
    0.3552   -4.7645    0.0069 C   0  0
   12.5590    1.0479    0.1345 C   0  0
   -1.8193   -5.4220   -0.0186 O   0  0
   12.1923   -1.3313   -0.1884 C   0  0
   -0.5397   -3.5922   -0.0376 C   0  0
   11.7257    0.0550   -0.1626 C   0  0
   -1.8394   -4.0793   -0.0395 C   0  0
   12.0565    2.4273    0.1293 C   0  0
   10.4750   -3.8277    0.2519 O   0  0
   10.0229   -1.8239   -1.5953 O   0  0
   11.9169   -3.3455   -1.8431 O   0  0
    1.9158   -4.7061    0.0438 C   0  0
   13.9619    0.7509    0.4553 C   0  0
   -0.0603   -7.3289    0.0488 C   0  0
    4.7504   -4.5260    0.1573 C   0  0
    6.2202   -4.3789    0.2269 C   0  0
   10.8612    2.6397   -0.1049 O   0  0
   13.4656   -1.6088    0.0907 C   0  0
   14.3887   -0.5141    0.4516 C   0  0
    2.6709   -5.7797    0.3274 C   0  0
    2.6155   -3.4365   -0.2141 C   0  0
    3.9433   -3.3557   -0.1745 C   0  0
    4.1468   -5.6868    0.3983 C   0  0
    6.8122   -3.1708   -0.3060 C   0  0
    7.0103   -5.3183    0.7559 C   0  0
    9.0287   -4.0015    0.2678 C   0  0
   12.9145    3.4969    0.3614 O   0  0
   -1.1966   -8.3576    0.0268 C   0  0
    8.1285   -3.0040   -0.3013 C   0  0
    8.4904   -5.1094    0.7936 C   0  0
   14.8462    1.7822    0.7647 O   0  0
   -0.2764   -2.2914   -0.0459 C   0  0
   -2.9081   -3.2886   -0.0535 C   0  0
   -2.4826   -8.0039    0.0107 C   0  0
   -0.8498   -9.7827    0.0255 C   0  0
   -1.4240   -1.3564   -0.0677 C   0  0
   -2.6766   -1.8328   -0.0694 C   0  0
   -1.8064  -10.7099    0.0090 C   0  0
   -3.5357   -9.0204   -0.0075 C   0  0
   -3.2137  -10.3116   -0.0080 C   0  0
   10.6829    0.2767   -0.3896 H   0  0
    0.5718   -7.5162   -0.8192 H   0  0
    0.5154   -7.4920    0.9600 H   0  0
   13.8235   -2.6376    0.0529 H   0  0
   15.4218   -0.7396    0.7158 H   0  0
    2.1872   -6.7394    0.5092 H   0  0
    2.0335   -2.5436   -0.4424 H   0  0
    4.4329   -2.4065   -0.3919 H   0  0
    4.7378   -6.5680    0.6475 H   0  0
    6.1707   -2.3903   -0.7152 H   0  0
    6.5770   -6.2338    1.1585 H   0  0
   13.3500    3.3970    1.3117 H   0  0
    8.5492   -2.0966   -0.7347 H   0  0
    9.1336   -5.8614    1.2506 H   0  0
   15.2260    1.6395    1.7332 H   0  0
    0.7498   -1.9241   -0.0370 H   0  0
   -3.9171   -3.7010   -0.0531 H   0  0
   -2.7519   -6.9476    0.0111 H   0  0
    0.1973  -10.0852    0.0381 H   0  0
   -1.2501   -0.2805   -0.0824 H   0  0
   -3.5224   -1.1454   -0.0826 H   0  0
   -1.5398  -11.7668    0.0081 H   0  0
   -4.5834   -8.7198   -0.0207 H   0  0
   -3.9963  -11.0701   -0.0210 H   0  0
  2  3  2  0
  3 14  1  0
  4  8  2  0
  5  2  1  0
  6  1  1  0
  7  3  1  0
  8  6  1  0
  9  7  1  0
 10  4  1  0
 11  1  1  0
 12  1  2  0
 13  1  2  0
 14 22  2  0
 15 21  2  0
 16  2  1  0
 17 18  1  0
 18 27  2  0
 19 10  2  0
 20  6  2  0
 21 20  1  0
 22 25  1  0
 23 24  2  0
 24 17  1  0
 25 17  2  0
 26 31  2  0
 27 32  1  0
 28 11  1  0
 29 10  1  0
 30 16  1  0
 31 28  1  0
 32 28  2  0
 33 15  1  0
 34  7  2  0
 35  9  2  0
 36 30  2  0
 37 30  1  0
 38 34  1  0
 39 38  2  0
 40 37  2  0
 41 36  1  0
 42 40  1  0
 26 18  1  0
  4 15  1  0
 23 14  1  0
  9  5  1  0
 39 35  1  0
 41 42  2  0
  8 43  1  0
 16 44  1  0
 16 45  1  0
 20 46  1  0
 21 47  1  0
 22 48  1  0
 23 49  1  0
 24 50  1  0
 25 51  1  0
 26 52  1  0
 27 53  1  0
 29 54  1  0
 31 55  1  0
 32 56  1  0
 33 57  1  0
 34 58  1  0
 35 59  1  0
 36 60  1  0
 37 61  1  0
 38 62  1  0
 39 63  1  0
 40 64  1  0
 41 65  1  0
 42 66  1  0
M  END
> <Name>
Molecule

> <Clean Energy>
52.8974

> <From>
www.bindingDB.org

> <BindingDB Reactant_set_id>
50154595

> <Ligand InChI>
InChI=1S/C34H24O7S/c35-30-19-18-27(21-29(30)34(36)37)42(38,39)41-26-16-14-24(15-17-26)23-10-12-25(13-11-23)33-28-8-4-5-9-31(28)40-32(33)20-22-6-2-1-3-7-22/h1-19,21,35H,20H2,(H,36,37)

> <Ligand InChI Key>
AWKBGZZJBRFEPL-UHFFFAOYSA-N

> <BindingDB MonomerID>
50086911

> <BindingDB Ligand Name>
5-[4''-(2-Benzyl-benzofuran-3-yl)-biphenyl-4-yloxysulfonyl]-2-hydroxy-benzoic acid::5-[4'-(2-Benzyl-benzofuran-3-yl)-biphenyl-4-yloxysulfonyl]-2-hydroxy-benzoic acid::CHEMBL441959

> <Target Name>
Tyrosine-protein phosphatase non-receptor type 1

> <Target Source Organism According to Curator or DataSource>
Homo sapiens

> <IC50 (nM)>
26

> <Curation/DataSource>
ChEMBL

> <Article DOI>
10.1021/jm990560c

> <BindingDB Entry DOI>
10.7270/Q2W958FT

> <PMID>
10753467

> <Authors>
Malamas, MS; Sredy, J; Moxham, C; Katz, A; Xu, W; McDevitt, R; Adebayo, FO; Sawicki, DR; Seestaller, L; Sullivan, D; Taylor, JR

> <Institution>
Wyeth-Ayerst Research

> <Link to Ligand in BindingDB>
http://www.bindingdb.org/bind/chemsearch/marvin/MolStructure.jsp?monomerid=50086911

> <Link to Ligand-Target Pair in BindingDB>
http://www.bindingdb.org/jsp/dbsearch/PrimarySearch_ki.jsp?energyterm=kJ/mole&tag=pol&polymerid=2622&target=Tyrosine-protein+phosphatase+non-receptor+type+1&column=ki&startPg=0&Increment=50&submit=Sea
rch
http://www.bindingdb.org/jsp/dbsearch/PrimarySearch_ki.jsp?energyterm=kJ/mole&tag=r21&monomerid=50086911&enzyme=Tyrosine-protein+phosphatase+non-receptor+type+1&column=ki&startPg=0&Increment=50&submit
=Search

> <PubChem CID of Ligand>
9808280

> <PubChem SID of Ligand>
103986022

> <ChEMBL ID of Ligand>
CHEMBL441959

> <ZINC ID of Ligand>
ZINC02008084

> <Number of Protein Chains in Target (bigger than 1 implies a multichain complex)>
1

> <BindingDB Target Chain Sequence>
MEMEKEFEQIDKSGSWAAIYQDIRHEASDFPCRVAKLPKNKNRNRYRDVSPFDHSRIKLHQEDNDYINASLIKMEEAQRSYILTQGPLPNTCGHFWEMVWEQKSRGVVMLNRVMEKGSLKCAQYWPQKEEKEMIFEDTNLKLTLISEDIKSYYTVRQLELENLTTQETREILHFHYTTWPDFGVPESPASFLNFLFKVRE
SGSLSPEHGPVVVHCSAGIGRSGTFCLADTCLLLMDKRKDPSSVDIKKVLLEMRKFRMGLIQTADQLRFSYLAVIEGAKFIMGDSSVQDQWKELSHEDLEPPPEHIPPPPRPPKRILEPHNGKCREFFPNHQWVKEETQEDKDCPIKEEKGSPLNAAPYGIESMSQDTEVRSRVVGGSLRGAQAASPAKGEPSLPEKDED
HALSYWKPFLVNMCVATVLTAGAYLCYRFLFNSNT

> <PDB ID(s) of Target Chain>
1BZJ,1G7G,1GFY,1JF7,1KAK,1KAV,1LQF,1NL9,1NNY,1NO6,1NZ7,1OEM,1OEO,1OES,1OET,1OEU,1OEV,1ONY,1ONZ,1PH0,1PXH,1PYN,1Q1M,1Q6J,1Q6M,1Q6N,1Q6P,1Q6S,1Q6T,1QXK,1SUG,1T48,1T49,1T4J,1WAX,1XBO,2AZR,2B07,2BGD,2BGE,
2CM2,2CM3,2CM7,2CM8,2CMA,2CMB,2CMC,2CNE,2CNF,2CNG,2CNH,2CNI,2F6T,2F6V,2F6W,2F6Y,2F6Z,2F70,2F71,2FJN,2H4G,2H4K,2HB1,2HNP,2HNQ,2QBP,2QBQ,2QBR,2QBS,2VEU,2VEV,2VEW,2VEX,2VEY,2ZMM,2ZN7,3A5J,3CWE,3D9C,3EAX,
3EB1,3EU0,3I7Z,3I80,3SME,4BJO,4I8N,4QBW,4Y14,5K9V,5K9W,5KA0,5KA1,5T19,6B90,6NTP,6W30,7KEY,7KLX,7LFO,7MN9,7MNA,8DU7,8G65,8G67,8G68,8G69,8G6A,8SKL

> <UniProt (SwissProt) Recommended Name of Target Chain>
Tyrosine-protein phosphatase non-receptor type 1

> <UniProt (SwissProt) Entry Name of Target Chain>
PTN1_HUMAN

> <UniProt (SwissProt) Primary ID of Target Chain>
P18031

> <UniProt (SwissProt) Secondary ID(s) of Target Chain>
Q5TGD8 Q9BQV9 Q9NQQ4

$$$$
Molecule
  SciTegic10242319433D

 39 41  0  0  0  0            999 V2000
   15.6411   -8.1454   -0.0223 C   0  0
   15.7259   -9.4839    0.1711 C   0  0
   17.0630  -10.0925    0.1855 C   0  0
   16.8903   -7.3637   -0.2013 C   0  0
   18.0799   -7.9599   -0.1703 C   0  0
   18.1646   -9.3717    0.0212 C   0  0
   19.4108   -9.9921    0.0485 N   0  0
   20.4954   -9.3341   -0.0786 C   0  0
   20.4799   -7.8632   -0.2677 C   0  0
   19.3183   -7.2058   -0.3177 C   0  0
   14.5727  -10.5092    0.4180 C   0  0
   13.0095  -10.2353   -0.1321 P   0  0
   13.0036  -10.0710   -1.6720 O   0  0
   12.4252   -9.1452    0.4711 O   0  0
   12.1597  -11.4770    0.2464 O   0  0
   15.0171  -11.7048   -0.1077 F   0  0
   14.4950  -10.6846    1.7810 F   0  0
   21.7589  -10.0790   -0.0282 C   0  0
   14.0236   -7.1535   -0.0652 Br  0  0
   22.9410   -9.4339   -0.0957 N   0  0
   24.2280  -10.0822   -0.0494 C   0  0
   24.3517  -11.4117   -0.0064 C   0  0
   25.6719  -12.0412    0.0388 C   0  0
   26.7679  -11.2877    0.0385 C   0  0
   26.6493   -9.8306   -0.0073 C   0  0
   25.4454   -9.2567   -0.0497 C   0  0
   21.6928  -11.3073    0.0908 O   0  0
   27.7554   -9.0726   -0.0065 F   0  0
   17.1526  -11.1683    0.3358 H   0  0
   16.8326   -6.2869   -0.3603 H   0  0
   21.4184   -7.3176   -0.3662 H   0  0
   19.2970   -6.1262   -0.4659 H   0  0
   12.0138   -9.9836   -2.0113 H   0  0
   12.1524  -11.5917    1.2901 H   0  0
   22.9227   -8.3682   -0.1900 H   0  0
   23.4578  -12.0355   -0.0050 H   0  0
   25.7571  -13.1273    0.0728 H   0  0
   27.7521  -11.7549    0.0722 H   0  0
   25.3637   -8.1704   -0.0848 H   0  0
  3  6  2  0
 12 14  2  0
  6  7  1  0
 12 15  1  0
  1  2  2  0
 11 16  1  0
  7  8  2  0
 11 17  1  0
  5  4  2  0
  8 18  1  0
  8  9  1  0
  1 19  1  0
  4  1  1  0
 18 20  1  0
  9 10  2  0
 20 21  1  0
 10  5  1  0
 21 22  2  0
 22 23  1  0
  2 11  1  0
 23 24  2  0
  2  3  1  0
 24 25  1  0
 11 12  1  0
 25 26  2  0
 26 21  1  0
  5  6  1  0
 18 27  2  0
 12 13  1  0
 25 28  1  0
  3 29  1  0
  4 30  1  0
  9 31  1  0
 10 32  1  0
 13 33  1  0
 15 34  1  0
 20 35  1  0
 22 36  1  0
 23 37  1  0
 24 38  1  0
 26 39  1  0
M  END
> <Name>
Molecule

> <Clean Energy>
20.5971

> <From>
www.bindingDB.org

> <BindingDB Reactant_set_id>
50859543

> <Ligand InChI>
InChI=1S/C17H11BrF3N2O4P/c18-13-6-9-4-5-14(16(24)22-11-3-1-2-10(19)7-11)23-15(9)8-12(13)17(20,21)28(25,26)27/h1-8H,(H,22,24)(H2,25,26,27)

> <Ligand InChI Key>
AVBZVRGTYICWDB-UHFFFAOYSA-N

> <BindingDB MonomerID>
50373449

> <BindingDB Ligand Name>
CHEMBL261362

> <Target Name>
Tyrosine-protein phosphatase non-receptor type 1

> <Target Source Organism According to Curator or DataSource>
Homo sapiens

> <IC50 (nM)>
27

> <Curation/DataSource>
ChEMBL

> <Article DOI>
10.1016/j.bmcl.2008.04.064

> <BindingDB Entry DOI>
10.7270/Q24M95DX

> <PMID>
18477508

> <Authors>
Han, Y; Belley, M; Bayly, CI; Colucci, J; Dufresne, C; Giroux, A; Lau, CK; Leblanc, Y; McKay, D; Therien, M; Wilson, MC; Skorey, K; Chan, CC; Scapin, G; Kennedy, BP

> <Institution>
Merck Frosst Centre for Therapeutic Research

> <Link to Ligand in BindingDB>
http://www.bindingdb.org/bind/chemsearch/marvin/MolStructure.jsp?monomerid=50373449

> <Link to Ligand-Target Pair in BindingDB>
http://www.bindingdb.org/jsp/dbsearch/PrimarySearch_ki.jsp?energyterm=kJ/mole&tag=pol&polymerid=2622&target=Tyrosine-protein+phosphatase+non-receptor+type+1&column=ki&startPg=0&Increment=50&submit=Sea
rch
http://www.bindingdb.org/jsp/dbsearch/PrimarySearch_ki.jsp?energyterm=kJ/mole&tag=r21&monomerid=50373449&enzyme=Tyrosine-protein+phosphatase+non-receptor+type+1&column=ki&startPg=0&Increment=50&submit
=Search

> <PubChem CID of Ligand>
25056896

> <PubChem SID of Ligand>
160852550

> <ChEMBL ID of Ligand>
CHEMBL261362

> <ZINC ID of Ligand>
ZINC29047904

> <Number of Protein Chains in Target (bigger than 1 implies a multichain complex)>
1

> <BindingDB Target Chain Sequence>
MEMEKEFEQIDKSGSWAAIYQDIRHEASDFPCRVAKLPKNKNRNRYRDVSPFDHSRIKLHQEDNDYINASLIKMEEAQRSYILTQGPLPNTCGHFWEMVWEQKSRGVVMLNRVMEKGSLKCAQYWPQKEEKEMIFEDTNLKLTLISEDIKSYYTVRQLELENLTTQETREILHFHYTTWPDFGVPESPASFLNFLFKVRE
SGSLSPEHGPVVVHCSAGIGRSGTFCLADTCLLLMDKRKDPSSVDIKKVLLEMRKFRMGLIQTADQLRFSYLAVIEGAKFIMGDSSVQDQWKELSHEDLEPPPEHIPPPPRPPKRILEPHNGKCREFFPNHQWVKEETQEDKDCPIKEEKGSPLNAAPYGIESMSQDTEVRSRVVGGSLRGAQAASPAKGEPSLPEKDED
HALSYWKPFLVNMCVATVLTAGAYLCYRFLFNSNT

> <PDB ID(s) of Target Chain>
1BZJ,1G7G,1GFY,1JF7,1KAK,1KAV,1LQF,1NL9,1NNY,1NO6,1NZ7,1OEM,1OEO,1OES,1OET,1OEU,1OEV,1ONY,1ONZ,1PH0,1PXH,1PYN,1Q1M,1Q6J,1Q6M,1Q6N,1Q6P,1Q6S,1Q6T,1QXK,1SUG,1T48,1T49,1T4J,1WAX,1XBO,2AZR,2B07,2BGD,2BGE,
2CM2,2CM3,2CM7,2CM8,2CMA,2CMB,2CMC,2CNE,2CNF,2CNG,2CNH,2CNI,2F6T,2F6V,2F6W,2F6Y,2F6Z,2F70,2F71,2FJN,2H4G,2H4K,2HB1,2HNP,2HNQ,2QBP,2QBQ,2QBR,2QBS,2VEU,2VEV,2VEW,2VEX,2VEY,2ZMM,2ZN7,3A5J,3CWE,3D9C,3EAX,
3EB1,3EU0,3I7Z,3I80,3SME,4BJO,4I8N,4QBW,4Y14,5K9V,5K9W,5KA0,5KA1,5T19,6B90,6NTP,6W30,7KEY,7KLX,7LFO,7MN9,7MNA,8DU7,8G65,8G67,8G68,8G69,8G6A,8SKL

> <UniProt (SwissProt) Recommended Name of Target Chain>
Tyrosine-protein phosphatase non-receptor type 1

> <UniProt (SwissProt) Entry Name of Target Chain>
PTN1_HUMAN

> <UniProt (SwissProt) Primary ID of Target Chain>
P18031

> <UniProt (SwissProt) Secondary ID(s) of Target Chain>
Q5TGD8 Q9BQV9 Q9NQQ4

$$$$
Molecule
  SciTegic10242319433D

 56 61  0  0  0  0            999 V2000
   -4.0816    1.6262    0.6037 C   0  0
   -3.9829    0.1396    0.6471 C   0  0
   -2.8408   -0.4690    0.3185 C   0  0
   -1.7263    0.3715   -0.0767 C   0  0
   -1.7948    1.6928   -0.0956 C   0  0
   -3.0113    2.3586    0.2648 C   0  0
   -3.0278    3.8752    0.2563 C   0  0  1  0  0  0
   -1.5002    4.6762   -0.1864 S   0  0
   -2.1951    6.1983   -0.2407 N   0  0
   -3.5714    6.0194   -0.5703 C   0  0
   -4.0111    4.5418   -0.7239 C   0  0
   -4.3470    6.9672   -0.7325 O   0  0
   -1.0465    4.2716   -1.5773 O   0  0
   -0.3952    4.4913    0.8366 O   0  0
   -2.7282   -2.0387    0.4501 C   0  0
   -1.6361   -2.8801   -0.3996 C   0  0  2  0  0  0
   -1.7196   -4.3218   -0.1375 N   0  0
   -0.1564   -2.4854   -0.1946 C   0  0
    0.9376   -3.4150   -0.0766 N   0  0
    0.2665   -1.2816   -0.1491 N   0  0
    1.6133   -1.2910    0.0076 C   0  0
    2.0481   -2.5930    0.0489 C   0  0
    3.3287   -2.9114    0.1855 C   0  0
    4.2932   -1.7831    0.2972 C   0  0
    3.8566   -0.5150    0.2580 C   0  0
    2.4202   -0.2430    0.1010 C   0  0
   -5.2380    2.2172    0.9426 F   0  0
   -2.9123   -5.1047   -0.1114 C   0  0
   -4.5102   -4.5467   -0.3570 S   0  0
   -2.9036   -6.3802    0.1101 N   0  0
   -4.2438   -6.9627    0.0887 C   0  0
   -5.2580   -6.0034   -0.1661 C   0  0
   -6.5494   -6.3013   -0.2265 C   0  0
   -6.9229   -7.7174   -0.0151 C   0  0
   -5.9745   -8.6361    0.2234 C   0  0
   -4.5446   -8.2431    0.2814 C   0  0
   -4.8466   -0.4531    0.9483 H   0  0
   -0.7918   -0.1062   -0.3709 H   0  0
   -0.9220    2.2773   -0.3867 H   0  0
   -3.2919    4.2057    1.2609 H   0  0
   -1.7001    7.1299   -0.0618 H   0  0
   -5.0479    4.3936   -0.4219 H   0  0
   -3.8740    4.1817   -1.7435 H   0  0
   -2.5269   -2.2459    1.5011 H   0  0
   -3.7047   -2.4411    0.1805 H   0  0
   -1.8655   -2.7313   -1.4547 H   0  0
   -0.7994   -4.8340    0.0517 H   0  0
    0.9022   -4.4844   -0.0841 H   0  0
    3.6588   -3.9498    0.2146 H   0  0
    5.3577   -1.9878    0.4112 H   0  0
    4.5638    0.3102    0.3422 H   0  0
    2.0354    0.7761    0.0631 H   0  0
   -7.3016   -5.5373   -0.4230 H   0  0
   -7.9708   -8.0149   -0.0532 H   0  0
   -6.2561   -9.6780    0.3755 H   0  0
   -3.7660   -8.9807    0.4758 H   0  0
 16 18  1  0
 19 22  1  0
  4  5  2  0
  2  3  2  0
 18 19  1  0
 21 20  1  0
 20 18  2  0
  8  9  1  0
  9 10  1  0
 21 22  1  0
 10 11  1  0
 22 23  2  0
  7 11  1  0
 23 24  1  0
  5  6  1  0
 24 25  2  0
 10 12  2  0
 25 26  1  0
 26 21  2  0
  6  1  2  0
  1 27  1  0
  8 13  2  0
 17 28  1  0
 29 32  1  0
  7  6  1  0
  8 14  2  0
 28 29  1  0
 31 30  1  0
 30 28  2  0
  7  8  1  0
  3 15  1  0
 31 32  1  0
  1  2  1  0
 32 33  2  0
 16 15  1  0
 33 34  1  0
  3  4  1  0
 34 35  2  0
 16 17  1  0
 35 36  1  0
 36 31  2  0
  2 37  1  0
  4 38  1  0
  5 39  1  0
  7 40  1  0
  9 41  1  0
 11 42  1  0
 11 43  1  0
 15 44  1  0
 15 45  1  0
 16 46  1  0
 17 47  1  0
 19 48  1  0
 23 49  1  0
 24 50  1  0
 25 51  1  0
 26 52  1  0
 33 53  1  0
 34 54  1  0
 35 55  1  0
 36 56  1  0
M  END
> <Name>
Molecule

> <Clean Energy>
104.955

> <From>
www.bindingDB.org

> <BindingDB Reactant_set_id>
50554755

> <Ligand InChI>
InChI=1S/C25H20FN5O3S2/c26-16-11-14(9-10-15(16)22-13-23(32)31-36(22,33)34)12-20(24-27-17-5-1-2-6-18(17)28-24)30-25-29-19-7-3-4-8-21(19)35-25/h1-11,20,22H,12-13H2,(H,27,28)(H,29,30)(H,31,32)/t20-,22-/m
0/s1

> <Ligand InChI Key>
WPUFGGKRENZYJA-UNMCSNQZSA-N

> <BindingDB MonomerID>
50308845

> <BindingDB Ligand Name>
(S)-5-{4-[(S)-2-(1H-Benzoimidazol-2-yl)-2-(benzothiazol-2-ylamino)-ethyl]-2-fluoro-phenyl}-1,1-dioxo-1lamda*6*-isothiazolidin-3-one::CHEMBL607027

> <Target Name>
Tyrosine-protein phosphatase non-receptor type 1

> <Target Source Organism According to Curator or DataSource>
Homo sapiens

> <IC50 (nM)>
27

> <Curation/DataSource>
ChEMBL

> <Article DOI>
10.1021/jm901090b

> <BindingDB Entry DOI>
10.7270/Q28P60MB

> <PMID>
20000419

> <Authors>
Combs, AP

> <Institution>
Incyte Corporation

> <Link to Ligand in BindingDB>
http://www.bindingdb.org/bind/chemsearch/marvin/MolStructure.jsp?monomerid=50308845

> <Link to Ligand-Target Pair in BindingDB>
http://www.bindingdb.org/jsp/dbsearch/PrimarySearch_ki.jsp?energyterm=kJ/mole&tag=pol&polymerid=2622&target=Tyrosine-protein+phosphatase+non-receptor+type+1&column=ki&startPg=0&Increment=50&submit=Sea
rch
http://www.bindingdb.org/jsp/dbsearch/PrimarySearch_ki.jsp?energyterm=kJ/mole&tag=r21&monomerid=50308845&enzyme=Tyrosine-protein+phosphatase+non-receptor+type+1&column=ki&startPg=0&Increment=50&submit
=Search

> <PubChem CID of Ligand>
46230106

> <PubChem SID of Ligand>
104163206

> <ChEMBL ID of Ligand>
CHEMBL607027

> <ZINC ID of Ligand>
ZINC14955291

> <Number of Protein Chains in Target (bigger than 1 implies a multichain complex)>
1

> <BindingDB Target Chain Sequence>
MEMEKEFEQIDKSGSWAAIYQDIRHEASDFPCRVAKLPKNKNRNRYRDVSPFDHSRIKLHQEDNDYINASLIKMEEAQRSYILTQGPLPNTCGHFWEMVWEQKSRGVVMLNRVMEKGSLKCAQYWPQKEEKEMIFEDTNLKLTLISEDIKSYYTVRQLELENLTTQETREILHFHYTTWPDFGVPESPASFLNFLFKVRE
SGSLSPEHGPVVVHCSAGIGRSGTFCLADTCLLLMDKRKDPSSVDIKKVLLEMRKFRMGLIQTADQLRFSYLAVIEGAKFIMGDSSVQDQWKELSHEDLEPPPEHIPPPPRPPKRILEPHNGKCREFFPNHQWVKEETQEDKDCPIKEEKGSPLNAAPYGIESMSQDTEVRSRVVGGSLRGAQAASPAKGEPSLPEKDED
HALSYWKPFLVNMCVATVLTAGAYLCYRFLFNSNT

> <PDB ID(s) of Target Chain>
1BZJ,1G7G,1GFY,1JF7,1KAK,1KAV,1LQF,1NL9,1NNY,1NO6,1NZ7,1OEM,1OEO,1OES,1OET,1OEU,1OEV,1ONY,1ONZ,1PH0,1PXH,1PYN,1Q1M,1Q6J,1Q6M,1Q6N,1Q6P,1Q6S,1Q6T,1QXK,1SUG,1T48,1T49,1T4J,1WAX,1XBO,2AZR,2B07,2BGD,2BGE,
2CM2,2CM3,2CM7,2CM8,2CMA,2CMB,2CMC,2CNE,2CNF,2CNG,2CNH,2CNI,2F6T,2F6V,2F6W,2F6Y,2F6Z,2F70,2F71,2FJN,2H4G,2H4K,2HB1,2HNP,2HNQ,2QBP,2QBQ,2QBR,2QBS,2VEU,2VEV,2VEW,2VEX,2VEY,2ZMM,2ZN7,3A5J,3CWE,3D9C,3EAX,
3EB1,3EU0,3I7Z,3I80,3SME,4BJO,4I8N,4QBW,4Y14,5K9V,5K9W,5KA0,5KA1,5T19,6B90,6NTP,6W30,7KEY,7KLX,7LFO,7MN9,7MNA,8DU7,8G65,8G67,8G68,8G69,8G6A,8SKL

> <UniProt (SwissProt) Recommended Name of Target Chain>
Tyrosine-protein phosphatase non-receptor type 1

> <UniProt (SwissProt) Entry Name of Target Chain>
PTN1_HUMAN

> <UniProt (SwissProt) Primary ID of Target Chain>
P18031

> <UniProt (SwissProt) Secondary ID(s) of Target Chain>
Q5TGD8 Q9BQV9 Q9NQQ4

$$$$
Molecule
  SciTegic10242319433D

 69 74  0  0  0  0            999 V2000
    0.8564   -6.3482    0.0048 C   0  0
    1.4124   -5.0704    0.0087 C   0  0
   -0.8483   -6.2067   -0.0051 S   0  0
    8.9686   -1.7716   -0.0491 C   0  0
   10.0037   -3.0258   -0.0599 C   0  0
    0.2602   -4.0114    0.0029 C   0  0
   -1.0307   -4.5944   -0.0041 C   0  0
    7.6534   -2.0866   -0.0174 C   0  0
    7.1749   -3.5094    0.0194 C   0  0
    9.4838   -4.2527    0.0124 C   0  0
    9.2695   -0.2073    0.0226 C   0  0
   11.4874   -3.0915   -0.1793 O   0  0
    8.0555   -4.4945    0.0525 C   0  0
    2.9547   -4.6851    0.0184 C   0  0
    1.5990   -7.7246    0.0064 C   0  0
    5.7123   -3.8801    0.0298 C   0  0
   13.6450   -1.9281   -0.1134 C   0  0
    8.2697    0.6715   -0.1189 C   0  0
   14.2747   -0.8646   -0.1856 O   0  0
    3.9357   -5.5847    0.0427 C   0  0
    3.3734   -3.2449   -0.0005 C   0  0
    4.6603   -2.8752    0.0046 C   0  0
    5.3640   -5.1737    0.0478 C   0  0
   12.2118   -1.9451   -0.5390 C   0  0
   10.6587   -5.7462   -0.0033 Br  0  0
    8.5409    2.1485   -0.0310 C   0  0
   14.2433   -3.0520    0.4299 O   0  0
    0.7318   -9.0281    0.0032 C   0  0
   10.5922    0.3612    0.2972 C   0  0
    0.3685   -2.6752    0.0051 C   0  0
    7.5001    3.0769   -0.1907 O   0  0
   -2.1637   -3.9138   -0.0081 C   0  0
   10.8390    1.6606    0.3730 C   0  0
    9.7751    2.5910    0.1993 C   0  0
   -0.6018   -9.0147    0.0034 C   0  0
    1.4153  -10.3314    0.0008 C   0  0
    7.9923    4.4329   -0.0660 C   0  0
   -0.8685   -1.8632    0.0001 C   0  0
   -2.0707   -2.4500   -0.0059 C   0  0
   -1.3771  -10.2577    0.0010 C   0  0
    0.7127  -11.4664   -0.0012 C   0  0
   -0.7499  -11.4297   -0.0011 C   0  0
    6.9178   -1.2822   -0.0187 H   0  0
    7.6959   -5.5217    0.1118 H   0  0
    2.2301   -7.7533   -0.8819 H   0  0
    2.2248   -7.7540    0.8984 H   0  0
    7.2553    0.3155   -0.2984 H   0  0
    3.6861   -6.6456    0.0592 H   0  0
    2.6039   -2.4731   -0.0191 H   0  0
    4.9209   -1.8169   -0.0102 H   0  0
    6.1413   -5.9376    0.0665 H   0  0
   11.7186   -1.0824   -0.0912 H   0  0
   12.1833   -1.8573   -1.6251 H   0  0
   13.7340   -3.3320    1.3044 H   0  0
   11.4237   -0.3273    0.4484 H   0  0
    1.3478   -2.1967    0.0104 H   0  0
   -3.1288   -4.4203   -0.0129 H   0  0
   11.8511    2.0156    0.5672 H   0  0
    9.9706    3.6619    0.2547 H   0  0
   -1.1258   -8.0590    0.0053 H   0  0
    2.5046  -10.3703    0.0005 H   0  0
    7.1667    5.1329   -0.1937 H   0  0
    8.7465    4.6180   -0.8310 H   0  0
    8.4349    4.5700    0.9206 H   0  0
   -0.7994   -0.7754    0.0014 H   0  0
   -2.9764   -1.8434   -0.0092 H   0  0
   -2.4665  -10.2215    0.0010 H   0  0
    1.2311  -12.4252   -0.0030 H   0  0
   -1.3217  -12.3577   -0.0027 H   0  0
  2  1  2  0
  3  1  1  0
  4  8  2  0
  5 10  2  0
  6  2  1  0
  7  3  1  0
  8  9  1  0
  9 16  1  0
 10 13  1  0
 11  4  1  0
 12  5  1  0
 13  9  2  0
 14  2  1  0
 15  1  1  0
 16 22  1  0
 17 24  1  0
 18 11  2  0
 19 17  2  0
 20 14  2  0
 21 14  1  0
 22 21  2  0
 23 20  1  0
 24 12  1  0
 25 10  1  0
 26 18  1  0
 27 17  1  0
 28 15  1  0
 29 11  1  0
 30  6  2  0
 31 26  1  0
 32  7  2  0
 33 29  2  0
 34 33  1  0
 35 28  2  0
 36 28  1  0
 37 31  1  0
 38 30  1  0
 39 32  1  0
 40 35  1  0
 41 36  2  0
 42 41  1  0
  6  7  1  0
 38 39  2  0
 23 16  2  0
 40 42  2  0
  5  4  1  0
 26 34  2  0
  8 43  1  0
 13 44  1  0
 15 45  1  0
 15 46  1  0
 18 47  1  0
 20 48  1  0
 21 49  1  0
 22 50  1  0
 23 51  1  0
 24 52  1  0
 24 53  1  0
 27 54  1  0
 29 55  1  0
 30 56  1  0
 32 57  1  0
 33 58  1  0
 34 59  1  0
 35 60  1  0
 36 61  1  0
 37 62  1  0
 37 63  1  0
 37 64  1  0
 38 65  1  0
 39 66  1  0
 40 67  1  0
 41 68  1  0
 42 69  1  0
M  END
> <Name>
Molecule

> <Clean Energy>
61.144

> <From>
www.bindingDB.org

> <BindingDB Reactant_set_id>
50154659

> <Ligand InChI>
InChI=1S/C36H27BrO4S/c1-40-28-11-7-10-26(19-28)30-20-27(21-31(37)36(30)41-22-34(38)39)24-14-16-25(17-15-24)35-29-12-5-6-13-32(29)42-33(35)18-23-8-3-2-4-9-23/h2-17,19-21H,18,22H2,1H3,(H,38,39)

> <Ligand InChI Key>
HQALDKFFRYFTKP-UHFFFAOYSA-N

> <BindingDB MonomerID>
50086975

> <BindingDB Ligand Name>
Benzothiophene derivative::CHEMBL25628::[4-(2-Benzyl-benzo[b]thiophen-3-yl)-5'-bromo-3''-methoxy-[1,1':3',1'']terphenyl-4'-yloxy]-acetic acid::[4-(2-Benzyl-benzo[b]thiophen-3-yl)-5'-bromo-3''-methoxy-
[1,1';3',1'']terphenyl-4'-yloxy]-acetic acid

> <Target Name>
Tyrosine-protein phosphatase non-receptor type 1

> <Target Source Organism According to Curator or DataSource>
Homo sapiens

> <IC50 (nM)>
28

> <Curation/DataSource>
ChEMBL

> <Article DOI>
10.1021/jm990560c

> <BindingDB Entry DOI>
10.7270/Q2W958FT

> <PMID>
10753467

> <Authors>
Malamas, MS; Sredy, J; Moxham, C; Katz, A; Xu, W; McDevitt, R; Adebayo, FO; Sawicki, DR; Seestaller, L; Sullivan, D; Taylor, JR

> <Institution>
Wyeth-Ayerst Research

> <Link to Ligand in BindingDB>
http://www.bindingdb.org/bind/chemsearch/marvin/MolStructure.jsp?monomerid=50086975

> <Link to Ligand-Target Pair in BindingDB>
http://www.bindingdb.org/jsp/dbsearch/PrimarySearch_ki.jsp?energyterm=kJ/mole&tag=pol&polymerid=2622&target=Tyrosine-protein+phosphatase+non-receptor+type+1&column=ki&startPg=0&Increment=50&submit=Sea
rch
http://www.bindingdb.org/jsp/dbsearch/PrimarySearch_ki.jsp?energyterm=kJ/mole&tag=r21&monomerid=50086975&enzyme=Tyrosine-protein+phosphatase+non-receptor+type+1&column=ki&startPg=0&Increment=50&submit
=Search

> <PubChem CID of Ligand>
9895569

> <PubChem SID of Ligand>
103986086

> <ChEMBL ID of Ligand>
CHEMBL25628

> <ZINC ID of Ligand>
ZINC28758385

> <Number of Protein Chains in Target (bigger than 1 implies a multichain complex)>
1

> <BindingDB Target Chain Sequence>
MEMEKEFEQIDKSGSWAAIYQDIRHEASDFPCRVAKLPKNKNRNRYRDVSPFDHSRIKLHQEDNDYINASLIKMEEAQRSYILTQGPLPNTCGHFWEMVWEQKSRGVVMLNRVMEKGSLKCAQYWPQKEEKEMIFEDTNLKLTLISEDIKSYYTVRQLELENLTTQETREILHFHYTTWPDFGVPESPASFLNFLFKVRE
SGSLSPEHGPVVVHCSAGIGRSGTFCLADTCLLLMDKRKDPSSVDIKKVLLEMRKFRMGLIQTADQLRFSYLAVIEGAKFIMGDSSVQDQWKELSHEDLEPPPEHIPPPPRPPKRILEPHNGKCREFFPNHQWVKEETQEDKDCPIKEEKGSPLNAAPYGIESMSQDTEVRSRVVGGSLRGAQAASPAKGEPSLPEKDED
HALSYWKPFLVNMCVATVLTAGAYLCYRFLFNSNT

> <PDB ID(s) of Target Chain>
1BZJ,1G7G,1GFY,1JF7,1KAK,1KAV,1LQF,1NL9,1NNY,1NO6,1NZ7,1OEM,1OEO,1OES,1OET,1OEU,1OEV,1ONY,1ONZ,1PH0,1PXH,1PYN,1Q1M,1Q6J,1Q6M,1Q6N,1Q6P,1Q6S,1Q6T,1QXK,1SUG,1T48,1T49,1T4J,1WAX,1XBO,2AZR,2B07,2BGD,2BGE,
2CM2,2CM3,2CM7,2CM8,2CMA,2CMB,2CMC,2CNE,2CNF,2CNG,2CNH,2CNI,2F6T,2F6V,2F6W,2F6Y,2F6Z,2F70,2F71,2FJN,2H4G,2H4K,2HB1,2HNP,2HNQ,2QBP,2QBQ,2QBR,2QBS,2VEU,2VEV,2VEW,2VEX,2VEY,2ZMM,2ZN7,3A5J,3CWE,3D9C,3EAX,
3EB1,3EU0,3I7Z,3I80,3SME,4BJO,4I8N,4QBW,4Y14,5K9V,5K9W,5KA0,5KA1,5T19,6B90,6NTP,6W30,7KEY,7KLX,7LFO,7MN9,7MNA,8DU7,8G65,8G67,8G68,8G69,8G6A,8SKL

> <UniProt (SwissProt) Recommended Name of Target Chain>
Tyrosine-protein phosphatase non-receptor type 1

> <UniProt (SwissProt) Entry Name of Target Chain>
PTN1_HUMAN

> <UniProt (SwissProt) Primary ID of Target Chain>
P18031

> <UniProt (SwissProt) Secondary ID(s) of Target Chain>
Q5TGD8 Q9BQV9 Q9NQQ4

$$$$
Molecule
  SciTegic10242319433D

 69 71  0  0  0  0            999 V2000
    0.9961   -2.4233   -0.1624 S   0  0
   -3.1660   -7.9338   -0.5654 S   0  0
    8.8906   -5.5994    0.8659 C   0  0
    9.7131   -6.1232   -0.4906 P   0  0
    7.5780   -4.9050    0.5112 C   0  0
    2.3754   -3.5098    0.2893 N   0  0
    7.5136   -3.5286   -0.0576 C   0  0
    1.1540   -0.6509   -0.0680 C   0  0
   -1.5987   -7.1717   -0.2425 C   0  0
   -4.0902   -8.2948    0.8520 N   0  0
    6.4484   -5.5494    0.7650 C   0  0
    0.5793   -2.7418   -1.5851 O   0  0
   -0.1868   -2.6628    0.7542 O   0  0
   -2.9943   -9.1814   -1.4099 O   0  0
   -3.9634   -6.8966   -1.3303 O   0  0
    3.6884   -2.9914   -0.3425 C   0  0
   10.0435   -5.0606   -1.3048 O   0  0
    2.1465   -4.9649   -0.2137 C   0  0
    2.2113    5.6246    0.0103 C   0  0
    6.3192   -2.9765   -0.3130 C   0  0
    9.7199   -4.7274    1.5322 F   0  0
    8.6118   -6.7050    1.6442 F   0  0
    5.0647   -3.7058   -0.0306 C   0  0
    8.8374   -7.1236   -1.2838 O   0  0
   11.0154   -6.8339   -0.0349 O   0  0
    1.0805    6.1239   -0.0236 O   0  0
    2.3081    0.0127   -0.0217 C   0  0
   -1.5906   -5.8910    0.1026 C   0  0
   -0.1067    0.0921   -0.0751 C   0  0
   -0.3357   -7.8574   -0.5189 C   0  0
    9.0891   -2.5156   -0.4099 Br  0  0
    1.0706    3.5493    0.0223 O   0  0
    5.1567   -4.9325    0.4901 C   0  0
    0.8157   -5.7477   -0.1029 C   0  0
    2.3681    4.1370    0.0448 C   0  0
    1.1263    2.1518    0.0040 C   0  0
    3.3341    6.4418    0.0059 O   0  0
    0.8129   -7.1785   -0.4545 C   0  0
   -0.3395   -5.1674    0.1799 C   0  0
    2.2902    1.4906    0.0172 C   0  0
   -0.1202    1.4166   -0.0405 C   0  0
   -5.4884   -7.9244    0.5947 C   0  0
   -4.0371   -9.7532    1.0656 C   0  0
    6.4856   -6.5545    1.1852 H   0  0
    3.5527   -3.0330   -1.4233 H   0  0
    3.7972   -1.9531   -0.0292 H   0  0
    2.3825   -4.9440   -1.2777 H   0  0
    2.8843   -5.5721    0.3108 H   0  0
    6.2721   -1.9730   -0.7361 H   0  0
    8.6107   -7.9494   -0.6761 H   0  0
   11.6114   -6.1600    0.5066 H   0  0
    3.2548   -0.5276   -0.0125 H   0  0
   -2.5279   -5.3825    0.3284 H   0  0
   -1.0500   -0.4529   -0.1095 H   0  0
   -0.3323   -8.9166   -0.7761 H   0  0
    4.2444   -5.4851    0.7147 H   0  0
    2.9374    3.8064   -0.8239 H   0  0
    2.8900    3.8427    0.9554 H   0  0
    3.8982    6.2669    0.8741 H   0  0
    1.7543   -7.6865   -0.6635 H   0  0
   -0.3490   -4.1191    0.4783 H   0  0
    3.2284    2.0440    0.0569 H   0  0
   -1.0693    1.9525   -0.0455 H   0  0
   -6.0910   -8.1434    1.4761 H   0  0
   -5.8658   -8.4952   -0.2538 H   0  0
   -5.5472   -6.8592    0.3705 H   0  0
   -4.6123  -10.0119    1.9545 H   0  0
   -3.0010  -10.0636    1.2008 H   0  0
   -4.4587  -10.2633    0.1995 H   0  0
  2  9  1  0
  3  5  1  0
  4  3  1  0
  5 11  2  0
  6  1  1  0
  7 20  2  0
  8  1  1  0
  9 28  2  0
 10  2  1  0
 11 33  1  0
 12  1  2  0
 13  1  2  0
 14  2  2  0
 15  2  2  0
 16  6  1  0
 17  4  2  0
 18  6  1  0
 19 35  1  0
 20 23  1  0
 21  3  1  0
 22  3  1  0
 23 16  1  0
 24  4  1  0
 25  4  1  0
 26 19  2  0
 27  8  2  0
 28 39  1  0
 29  8  1  0
 30 38  2  0
 31  7  1  0
 32 36  1  0
 33 23  2  0
 34 18  1  0
 35 32  1  0
 36 41  1  0
 37 19  1  0
 38 34  1  0
 39 34  2  0
 40 27  1  0
 41 29  2  0
 42 10  1  0
 43 10  1  0
 36 40  2  0
 30  9  1  0
  7  5  1  0
 11 44  1  0
 16 45  1  0
 16 46  1  0
 18 47  1  0
 18 48  1  0
 20 49  1  0
 24 50  1  0
 25 51  1  0
 27 52  1  0
 28 53  1  0
 29 54  1  0
 30 55  1  0
 33 56  1  0
 35 57  1  0
 35 58  1  0
 37 59  1  0
 38 60  1  0
 39 61  1  0
 40 62  1  0
 41 63  1  0
 42 64  1  0
 42 65  1  0
 42 66  1  0
 43 67  1  0
 43 68  1  0
 43 69  1  0
M  END
> <Name>
Molecule

> <Clean Energy>
60.1985

> <From>
www.bindingDB.org

> <BindingDB Reactant_set_id>
50315617

> <Ligand InChI>
InChI=1S/C25H26BrF2N2O10PS2/c1-29(2)42(36,37)20-8-3-17(4-9-20)14-30(43(38,39)21-10-6-19(7-11-21)40-16-24(31)32)15-18-5-12-22(23(26)13-18)25(27,28)41(33,34)35/h3-13H,14-16H2,1-2H3,(H,31,32)(H2,33,34,35
)

> <Ligand InChI Key>
YGZGHANEFYTVGR-UHFFFAOYSA-N

> <BindingDB MonomerID>
50171117

> <BindingDB Ligand Name>
2-(4-(N-(3-bromo-4-(difluoro(phosphono)methyl)benzyl)-N-(4-(N,N-dimethylsulfamoyl)benzyl)sulfamoyl)phenoxy)acetic acid::CHEMBL198940::{4-[[3-Bromo-4-(difluoro-phosphono-methyl)-benzyl]-(4-dimethylsulf
amoyl-benzyl)-sulfamoyl]-phenoxy}-acetic acid

> <Target Name>
Tyrosine-protein phosphatase non-receptor type 1

> <Target Source Organism According to Curator or DataSource>
Homo sapiens

> <IC50 (nM)>
28

> <Curation/DataSource>
ChEMBL

> <Article DOI>
10.1016/j.bmcl.2005.06.061

> <BindingDB Entry DOI>
10.7270/Q2M61JSK

> <PMID>
16046123

> <Authors>
Holmes, CP; Li, X; Pan, Y; Xu, C; Bhandari, A; Moody, CM; Miguel, JA; Ferla, SW; De Francisco, MN; Frederick, BT; Zhou, S; Macher, N; Jang, L; Irvine, JD; Grove, JR

> <Institution>
Affymax, Inc.

> <Link to Ligand in BindingDB>
http://www.bindingdb.org/bind/chemsearch/marvin/MolStructure.jsp?monomerid=50171117

> <Link to Ligand-Target Pair in BindingDB>
http://www.bindingdb.org/jsp/dbsearch/PrimarySearch_ki.jsp?energyterm=kJ/mole&tag=pol&polymerid=2622&target=Tyrosine-protein+phosphatase+non-receptor+type+1&column=ki&startPg=0&Increment=50&submit=Sea
rch
http://www.bindingdb.org/jsp/dbsearch/PrimarySearch_ki.jsp?energyterm=kJ/mole&tag=r21&monomerid=50171117&enzyme=Tyrosine-protein+phosphatase+non-receptor+type+1&column=ki&startPg=0&Increment=50&submit
=Search

> <PubChem CID of Ligand>
16036807

> <PubChem SID of Ligand>
104057414

> <ChEMBL ID of Ligand>
CHEMBL198940

> <ZINC ID of Ligand>
ZINC95606757

> <Number of Protein Chains in Target (bigger than 1 implies a multichain complex)>
1

> <BindingDB Target Chain Sequence>
MEMEKEFEQIDKSGSWAAIYQDIRHEASDFPCRVAKLPKNKNRNRYRDVSPFDHSRIKLHQEDNDYINASLIKMEEAQRSYILTQGPLPNTCGHFWEMVWEQKSRGVVMLNRVMEKGSLKCAQYWPQKEEKEMIFEDTNLKLTLISEDIKSYYTVRQLELENLTTQETREILHFHYTTWPDFGVPESPASFLNFLFKVRE
SGSLSPEHGPVVVHCSAGIGRSGTFCLADTCLLLMDKRKDPSSVDIKKVLLEMRKFRMGLIQTADQLRFSYLAVIEGAKFIMGDSSVQDQWKELSHEDLEPPPEHIPPPPRPPKRILEPHNGKCREFFPNHQWVKEETQEDKDCPIKEEKGSPLNAAPYGIESMSQDTEVRSRVVGGSLRGAQAASPAKGEPSLPEKDED
HALSYWKPFLVNMCVATVLTAGAYLCYRFLFNSNT

> <PDB ID(s) of Target Chain>
1BZJ,1G7G,1GFY,1JF7,1KAK,1KAV,1LQF,1NL9,1NNY,1NO6,1NZ7,1OEM,1OEO,1OES,1OET,1OEU,1OEV,1ONY,1ONZ,1PH0,1PXH,1PYN,1Q1M,1Q6J,1Q6M,1Q6N,1Q6P,1Q6S,1Q6T,1QXK,1SUG,1T48,1T49,1T4J,1WAX,1XBO,2AZR,2B07,2BGD,2BGE,
2CM2,2CM3,2CM7,2CM8,2CMA,2CMB,2CMC,2CNE,2CNF,2CNG,2CNH,2CNI,2F6T,2F6V,2F6W,2F6Y,2F6Z,2F70,2F71,2FJN,2H4G,2H4K,2HB1,2HNP,2HNQ,2QBP,2QBQ,2QBR,2QBS,2VEU,2VEV,2VEW,2VEX,2VEY,2ZMM,2ZN7,3A5J,3CWE,3D9C,3EAX,
3EB1,3EU0,3I7Z,3I80,3SME,4BJO,4I8N,4QBW,4Y14,5K9V,5K9W,5KA0,5KA1,5T19,6B90,6NTP,6W30,7KEY,7KLX,7LFO,7MN9,7MNA,8DU7,8G65,8G67,8G68,8G69,8G6A,8SKL

> <UniProt (SwissProt) Recommended Name of Target Chain>
Tyrosine-protein phosphatase non-receptor type 1

> <UniProt (SwissProt) Entry Name of Target Chain>
PTN1_HUMAN

> <UniProt (SwissProt) Primary ID of Target Chain>
P18031

> <UniProt (SwissProt) Secondary ID(s) of Target Chain>
Q5TGD8 Q9BQV9 Q9NQQ4

$$$$
Molecule
  SciTegic10242319433D

 79 85  0  0  0  0            999 V2000
   10.5125   -3.8715    0.2316 S   0  0
   -1.0128   -3.4749   -0.0215 C   0  0
   -0.2015   -2.3852    0.0028 C   0  0
   -2.3641   -3.0812   -0.0176 O   0  0
   13.5003   -7.2835   -0.1657 C   0  0
    9.9700   -2.3275   -0.3305 O   0  0
   11.6259   -5.1803   -0.2767 C   0  0
   -1.1167   -1.2277    0.0254 C   0  0
    7.9115   -1.0320   -0.0588 C   0  0
   12.0635   -7.5674   -0.1140 C   0  0
   -2.4083   -1.7419    0.0076 C   0  0
    8.5388   -2.2169   -0.2605 C   0  0
    6.4135   -0.9997    0.0329 C   0  0
   14.4683   -8.3913   -0.0236 C   0  0
   11.1775   -6.5729   -0.1719 C   0  0
    5.7072   -2.1277   -0.0710 C   0  0
   13.9206   -6.0225   -0.3026 C   0  0
    9.6583   -4.3745    1.3746 O   0  0
   11.6988   -3.1692    0.8363 O   0  0
    1.3692   -2.3039    0.0081 C   0  0
   -0.5869   -4.9591   -0.0474 C   0  0
    4.2183   -2.1519   -0.0196 C   0  0
   12.9338   -4.9147   -0.3162 C   0  0
    7.7305   -3.4305   -0.3534 C   0  0
   14.0634   -9.5486    0.1426 O   0  0
    6.4051   -3.3886   -0.2652 C   0  0
    2.2087   -3.5133   -0.1204 C   0  0
    2.0021   -1.1310    0.1155 C   0  0
    8.6730    0.2885    0.1796 C   0  0
    3.5384   -3.4369   -0.1347 C   0  0
    3.4897   -1.0416    0.1041 C   0  0
   11.6179   -8.8789    0.0049 O   0  0
   15.8326   -8.1276    0.0413 O   0  0
   -1.7141   -6.0054   -0.0291 C   0  0
   -0.8793    0.0757    0.0468 C   0  0
   -3.4930   -0.9723    0.0140 C   0  0
    9.9686    0.5605   -0.5472 C   0  0
    7.8625    1.5524   -0.0450 C   0  0
   -1.3817   -7.2963   -0.0292 C   0  0
   -3.1404   -5.6385   -0.0094 C   0  0
   -2.0467    0.9874    0.0566 C   0  0
   -3.2898    0.4862    0.0406 C   0  0
    8.9281    2.6611    0.2103 C   0  0
   10.3096    1.9200    0.1021 C   0  0
   -4.0828   -6.5798    0.0076 C   0  0
   -2.4197   -8.3338   -0.0105 C   0  0
   -3.7063   -7.9918    0.0071 C   0  0
    5.8999   -0.0504    0.1850 H   0  0
   10.1111   -6.7965   -0.1410 H   0  0
   14.9846   -5.8086   -0.4040 H   0  0
   -0.0039   -5.1188   -0.9544 H   0  0
    0.0417   -5.1368    0.8252 H   0  0
   13.2775   -3.8812   -0.3586 H   0  0
    8.2252   -4.3910   -0.4981 H   0  0
    5.8325   -4.3132   -0.3395 H   0  0
    1.7295   -4.4887   -0.2052 H   0  0
    1.4155   -0.2176    0.2137 H   0  0
    8.9277    0.2904    1.2394 H   0  0
    4.1274   -4.3487   -0.2339 H   0  0
    3.9803   -0.0726    0.1965 H   0  0
   11.0595   -8.9806    0.8883 H   0  0
   16.1375   -7.6400   -0.8372 H   0  0
    0.1393    0.4635    0.0570 H   0  0
   -4.4936   -1.4043    0.0000 H   0  0
   10.7245   -0.1964   -0.3375 H   0  0
    9.8261    0.6436   -1.6246 H   0  0
    7.4755    1.6004   -1.0629 H   0  0
    7.0363    1.6253    0.6622 H   0  0
   -0.3304   -7.5838   -0.0434 H   0  0
   -3.4275   -4.5870   -0.0088 H   0  0
   -1.8948    2.0666    0.0767 H   0  0
   -4.1489    1.1569    0.0474 H   0  0
    8.8534    3.4462   -0.5420 H   0  0
    8.8013    3.0945    1.2024 H   0  0
   10.7480    1.7761    1.0896 H   0  0
   11.0010    2.4835   -0.5244 H   0  0
   -5.1353   -6.2967    0.0218 H   0  0
   -2.1367   -9.3864   -0.0109 H   0  0
   -4.4766   -8.7628    0.0211 H   0  0
  2  3  2  0
  3 20  1  0
  4  2  1  0
  5 17  2  0
  6  1  1  0
  7  1  1  0
  8  3  1  0
  9 12  2  0
 10 15  2  0
 11  8  1  0
 12  6  1  0
 13  9  1  0
 14  5  1  0
 15  7  1  0
 16 26  1  0
 17 23  1  0
 18  1  2  0
 19  1  2  0
 20 28  2  0
 21  2  1  0
 22 16  1  0
 23  7  2  0
 24 12  1  0
 25 14  2  0
 26 24  2  0
 27 30  2  0
 28 31  1  0
 29  9  1  0
 30 22  1  0
 31 22  2  0
 32 10  1  0
 33 14  1  0
 34 21  1  0
 35  8  2  0
 36 11  2  0
 37 29  1  0
 38 29  1  0
 39 34  2  0
 40 34  1  0
 41 35  1  0
 42 41  2  0
 43 38  1  0
 44 37  1  0
 45 40  2  0
 46 39  1  0
 47 45  1  0
  5 10  1  0
 13 16  2  0
 44 43  1  0
 20 27  1  0
 11  4  1  0
 42 36  1  0
 46 47  2  0
 13 48  1  0
 15 49  1  0
 17 50  1  0
 21 51  1  0
 21 52  1  0
 23 53  1  0
 24 54  1  0
 26 55  1  0
 27 56  1  0
 28 57  1  0
 29 58  1  0
 30 59  1  0
 31 60  1  0
 32 61  1  0
 33 62  1  0
 35 63  1  0
 36 64  1  0
 37 65  1  0
 37 66  1  0
 38 67  1  0
 38 68  1  0
 39 69  1  0
 40 70  1  0
 41 71  1  0
 42 72  1  0
 43 73  1  0
 43 74  1  0
 44 75  1  0
 44 76  1  0
 45 77  1  0
 46 78  1  0
 47 79  1  0
M  END
> <Name>
Molecule

> <Clean Energy>
114.972

> <From>
www.bindingDB.org

> <BindingDB Reactant_set_id>
50154609

> <Ligand InChI>
InChI=1S/C39H32O7S/c40-34-24-30(19-20-31(34)39(41)42)47(43,44)46-36-21-18-29(23-33(36)27-10-4-5-11-27)26-14-16-28(17-15-26)38-32-12-6-7-13-35(32)45-37(38)22-25-8-2-1-3-9-25/h1-3,6-9,12-21,23-24,27,40H
,4-5,10-11,22H2,(H,41,42)

> <Ligand InChI Key>
HMKCTLQYWFHDFG-UHFFFAOYSA-N

> <BindingDB MonomerID>
50086923

> <BindingDB Ligand Name>
4-[4''-(2-Benzyl-benzofuran-3-yl)-3-cyclopentyl-biphenyl-4-yloxysulfonyl]-2-hydroxy-benzoic acid::4-[4'-(2-Benzyl-benzofuran-3-yl)-3-cyclopentyl-biphenyl-4-yloxysulfonyl]-2-hydroxy-benzoic acid::CHEMB
L24331

> <Target Name>
Tyrosine-protein phosphatase non-receptor type 1

> <Target Source Organism According to Curator or DataSource>
Homo sapiens

> <IC50 (nM)>
28

> <Curation/DataSource>
ChEMBL

> <Article DOI>
10.1021/jm990560c

> <BindingDB Entry DOI>
10.7270/Q2W958FT

> <PMID>
10753467

> <Authors>
Malamas, MS; Sredy, J; Moxham, C; Katz, A; Xu, W; McDevitt, R; Adebayo, FO; Sawicki, DR; Seestaller, L; Sullivan, D; Taylor, JR

> <Institution>
Wyeth-Ayerst Research

> <Link to Ligand in BindingDB>
http://www.bindingdb.org/bind/chemsearch/marvin/MolStructure.jsp?monomerid=50086923

> <Link to Ligand-Target Pair in BindingDB>
http://www.bindingdb.org/jsp/dbsearch/PrimarySearch_ki.jsp?energyterm=kJ/mole&tag=pol&polymerid=2622&target=Tyrosine-protein+phosphatase+non-receptor+type+1&column=ki&startPg=0&Increment=50&submit=Sea
rch
http://www.bindingdb.org/jsp/dbsearch/PrimarySearch_ki.jsp?energyterm=kJ/mole&tag=r21&monomerid=50086923&enzyme=Tyrosine-protein+phosphatase+non-receptor+type+1&column=ki&startPg=0&Increment=50&submit
=Search

> <PubChem CID of Ligand>
9895735

> <PubChem SID of Ligand>
103986034

> <ChEMBL ID of Ligand>
CHEMBL24331

> <ZINC ID of Ligand>
ZINC28758619

> <Number of Protein Chains in Target (bigger than 1 implies a multichain complex)>
1

> <BindingDB Target Chain Sequence>
MEMEKEFEQIDKSGSWAAIYQDIRHEASDFPCRVAKLPKNKNRNRYRDVSPFDHSRIKLHQEDNDYINASLIKMEEAQRSYILTQGPLPNTCGHFWEMVWEQKSRGVVMLNRVMEKGSLKCAQYWPQKEEKEMIFEDTNLKLTLISEDIKSYYTVRQLELENLTTQETREILHFHYTTWPDFGVPESPASFLNFLFKVRE
SGSLSPEHGPVVVHCSAGIGRSGTFCLADTCLLLMDKRKDPSSVDIKKVLLEMRKFRMGLIQTADQLRFSYLAVIEGAKFIMGDSSVQDQWKELSHEDLEPPPEHIPPPPRPPKRILEPHNGKCREFFPNHQWVKEETQEDKDCPIKEEKGSPLNAAPYGIESMSQDTEVRSRVVGGSLRGAQAASPAKGEPSLPEKDED
HALSYWKPFLVNMCVATVLTAGAYLCYRFLFNSNT

> <PDB ID(s) of Target Chain>
1BZJ,1G7G,1GFY,1JF7,1KAK,1KAV,1LQF,1NL9,1NNY,1NO6,1NZ7,1OEM,1OEO,1OES,1OET,1OEU,1OEV,1ONY,1ONZ,1PH0,1PXH,1PYN,1Q1M,1Q6J,1Q6M,1Q6N,1Q6P,1Q6S,1Q6T,1QXK,1SUG,1T48,1T49,1T4J,1WAX,1XBO,2AZR,2B07,2BGD,2BGE,
2CM2,2CM3,2CM7,2CM8,2CMA,2CMB,2CMC,2CNE,2CNF,2CNG,2CNH,2CNI,2F6T,2F6V,2F6W,2F6Y,2F6Z,2F70,2F71,2FJN,2H4G,2H4K,2HB1,2HNP,2HNQ,2QBP,2QBQ,2QBR,2QBS,2VEU,2VEV,2VEW,2VEX,2VEY,2ZMM,2ZN7,3A5J,3CWE,3D9C,3EAX,
3EB1,3EU0,3I7Z,3I80,3SME,4BJO,4I8N,4QBW,4Y14,5K9V,5K9W,5KA0,5KA1,5T19,6B90,6NTP,6W30,7KEY,7KLX,7LFO,7MN9,7MNA,8DU7,8G65,8G67,8G68,8G69,8G6A,8SKL

> <UniProt (SwissProt) Recommended Name of Target Chain>
Tyrosine-protein phosphatase non-receptor type 1

> <UniProt (SwissProt) Entry Name of Target Chain>
PTN1_HUMAN

> <UniProt (SwissProt) Primary ID of Target Chain>
P18031

> <UniProt (SwissProt) Secondary ID(s) of Target Chain>
Q5TGD8 Q9BQV9 Q9NQQ4

$$$$
Molecule
  SciTegic10242319433D

 66 71  0  0  0  0            999 V2000
   11.2665   -2.6386   -0.6263 S   0  0
   -0.8800   -2.8438   -0.0453 C   0  0
   -0.0514   -1.7634   -0.0191 C   0  0
   -2.5136   -2.3208   -0.0464 S   0  0
   13.4752   -6.5786    0.2401 C   0  0
   12.0144   -4.1912   -0.0890 C   0  0
   -0.9019   -0.4284    0.0057 C   0  0
   -2.3052   -0.7115   -0.0126 C   0  0
   12.0014   -6.6208    0.0797 C   0  0
   14.2727   -7.8174    0.3424 C   0  0
   11.3029   -5.4841   -0.0758 C   0  0
   10.2095   -1.6342    0.3393 O   0  0
   14.0994   -5.4067    0.2558 C   0  0
   10.5898   -2.8836   -1.9590 O   0  0
   12.4735   -1.7528   -0.8693 O   0  0
    1.5498   -1.7710    0.0073 C   0  0
   -0.4682   -4.3449   -0.0565 C   0  0
   13.3407   -4.1761    0.0609 C   0  0
    4.4207   -1.8077    0.0791 C   0  0
    5.9294   -1.8233    0.1526 C   0  0
   13.7249   -8.9235    0.2784 O   0  0
    2.2468   -0.6647    0.2434 C   0  0
    2.3403   -3.0197   -0.2306 C   0  0
    3.6782   -3.0251   -0.2077 C   0  0
    3.7390   -0.6762    0.2980 C   0  0
    6.7277   -2.9773   -0.3616 C   0  0
    6.5725   -0.7892    0.6831 C   0  0
    8.7735   -1.8016    0.2875 C   0  0
   11.3427   -7.8464    0.0829 O   0  0
   15.6649   -7.7401    0.4093 O   0  0
   -1.5609   -5.4292   -0.0309 C   0  0
    8.0739   -2.9569   -0.3177 C   0  0
    8.0424   -0.7879    0.7629 C   0  0
   -0.4878    0.8249    0.0228 C   0  0
   -3.2491    0.2282   -0.0051 C   0  0
   -2.8648   -5.1496   -0.0161 C   0  0
   -1.1399   -6.8348   -0.0226 C   0  0
   -1.5035    1.9146    0.0327 C   0  0
   -2.8122    1.6250    0.0201 C   0  0
   -2.0442   -7.8128   -0.0017 C   0  0
   -3.8615   -6.2211    0.0066 C   0  0
   -3.4705   -7.4926    0.0132 C   0  0
   10.2195   -5.5163   -0.1913 H   0  0
   15.1770   -5.3643    0.4141 H   0  0
    0.1178   -4.5064   -0.9613 H   0  0
    0.1610   -4.5078    0.8185 H   0  0
   13.8687   -3.2228    0.0372 H   0  0
    1.7163    0.2744    0.4012 H   0  0
    1.8107   -3.9516   -0.4283 H   0  0
    4.2173   -3.9514   -0.4060 H   0  0
    4.2784    0.2450    0.5181 H   0  0
    6.2150   -3.8450   -0.7767 H   0  0
    6.0086    0.0633    1.0616 H   0  0
   10.6457   -7.8677    0.8679 H   0  0
   16.0318   -7.2699   -0.4550 H   0  0
    8.6466   -3.7892   -0.7269 H   0  0
    8.5481    0.0617    1.2217 H   0  0
    0.5770    1.0579    0.0296 H   0  0
   -4.3072   -0.0332   -0.0172 H   0  0
   -3.1923   -4.1100   -0.0210 H   0  0
   -0.0781   -7.0808   -0.0335 H   0  0
   -1.1800    2.9554    0.0502 H   0  0
   -3.5495    2.4278    0.0285 H   0  0
   -1.7202   -8.8535    0.0043 H   0  0
   -4.9238   -5.9773    0.0182 H   0  0
   -4.2107   -8.2925    0.0296 H   0  0
  2  3  2  0
  3 16  1  0
  4  2  1  0
  5 13  2  0
  6  1  1  0
  7  3  1  0
  8  7  1  0
  9 11  2  0
 10  5  1  0
 11  6  1  0
 12  1  1  0
 13 18  1  0
 14  1  2  0
 15  1  2  0
 16 22  2  0
 17  2  1  0
 18  6  2  0
 19 20  1  0
 20 27  2  0
 21 10  2  0
 22 25  1  0
 23 24  2  0
 24 19  1  0
 25 19  2  0
 26 32  2  0
 27 33  1  0
 28 12  1  0
 29  9  1  0
 30 10  1  0
 31 17  1  0
 32 28  1  0
 33 28  2  0
 34  7  2  0
 35  8  2  0
 36 31  2  0
 37 31  1  0
 38 34  1  0
 39 38  2  0
 40 37  2  0
 41 36  1  0
 42 40  1  0
  9  5  1  0
 20 26  1  0
 16 23  1  0
  8  4  1  0
 39 35  1  0
 41 42  2  0
 11 43  1  0
 13 44  1  0
 17 45  1  0
 17 46  1  0
 18 47  1  0
 22 48  1  0
 23 49  1  0
 24 50  1  0
 25 51  1  0
 26 52  1  0
 27 53  1  0
 29 54  1  0
 30 55  1  0
 32 56  1  0
 33 57  1  0
 34 58  1  0
 35 59  1  0
 36 60  1  0
 37 61  1  0
 38 62  1  0
 39 63  1  0
 40 64  1  0
 41 65  1  0
 42 66  1  0
M  END
> <Name>
Molecule

> <Clean Energy>
59.7424

> <From>
www.bindingDB.org

> <BindingDB Reactant_set_id>
50154663

> <Ligand InChI>
InChI=1S/C34H24O6S2/c35-30-21-27(18-19-28(30)34(36)37)42(38,39)40-26-16-14-24(15-17-26)23-10-12-25(13-11-23)33-29-8-4-5-9-31(29)41-32(33)20-22-6-2-1-3-7-22/h1-19,21,35H,20H2,(H,36,37)

> <Ligand InChI Key>
IEIZBRGUHHPABP-UHFFFAOYSA-N

> <BindingDB MonomerID>
50086970

> <BindingDB Ligand Name>
4-[4'-(2-Benzyl-benzo[b]thiophen-3-yl)-biphenyl-4-yloxysulfonyl]-2-hydroxy-benzoic acid::CHEMBL25368

> <Target Name>
Tyrosine-protein phosphatase non-receptor type 1

> <Target Source Organism According to Curator or DataSource>
Homo sapiens

> <IC50 (nM)>
28

> <Curation/DataSource>
ChEMBL

> <Article DOI>
10.1021/jm990560c

> <BindingDB Entry DOI>
10.7270/Q2W958FT

> <PMID>
10753467

> <Authors>
Malamas, MS; Sredy, J; Moxham, C; Katz, A; Xu, W; McDevitt, R; Adebayo, FO; Sawicki, DR; Seestaller, L; Sullivan, D; Taylor, JR

> <Institution>
Wyeth-Ayerst Research

> <Link to Ligand in BindingDB>
http://www.bindingdb.org/bind/chemsearch/marvin/MolStructure.jsp?monomerid=50086970

> <Link to Ligand-Target Pair in BindingDB>
http://www.bindingdb.org/jsp/dbsearch/PrimarySearch_ki.jsp?energyterm=kJ/mole&tag=pol&polymerid=2622&target=Tyrosine-protein+phosphatase+non-receptor+type+1&column=ki&startPg=0&Increment=50&submit=Sea
rch
http://www.bindingdb.org/jsp/dbsearch/PrimarySearch_ki.jsp?energyterm=kJ/mole&tag=r21&monomerid=50086970&enzyme=Tyrosine-protein+phosphatase+non-receptor+type+1&column=ki&startPg=0&Increment=50&submit
=Search

> <PubChem CID of Ligand>
9830016

> <PubChem SID of Ligand>
103986081

> <ChEMBL ID of Ligand>
CHEMBL25368

> <ZINC ID of Ligand>
ZINC02008091

> <Number of Protein Chains in Target (bigger than 1 implies a multichain complex)>
1

> <BindingDB Target Chain Sequence>
MEMEKEFEQIDKSGSWAAIYQDIRHEASDFPCRVAKLPKNKNRNRYRDVSPFDHSRIKLHQEDNDYINASLIKMEEAQRSYILTQGPLPNTCGHFWEMVWEQKSRGVVMLNRVMEKGSLKCAQYWPQKEEKEMIFEDTNLKLTLISEDIKSYYTVRQLELENLTTQETREILHFHYTTWPDFGVPESPASFLNFLFKVRE
SGSLSPEHGPVVVHCSAGIGRSGTFCLADTCLLLMDKRKDPSSVDIKKVLLEMRKFRMGLIQTADQLRFSYLAVIEGAKFIMGDSSVQDQWKELSHEDLEPPPEHIPPPPRPPKRILEPHNGKCREFFPNHQWVKEETQEDKDCPIKEEKGSPLNAAPYGIESMSQDTEVRSRVVGGSLRGAQAASPAKGEPSLPEKDED
HALSYWKPFLVNMCVATVLTAGAYLCYRFLFNSNT

> <PDB ID(s) of Target Chain>
1BZJ,1G7G,1GFY,1JF7,1KAK,1KAV,1LQF,1NL9,1NNY,1NO6,1NZ7,1OEM,1OEO,1OES,1OET,1OEU,1OEV,1ONY,1ONZ,1PH0,1PXH,1PYN,1Q1M,1Q6J,1Q6M,1Q6N,1Q6P,1Q6S,1Q6T,1QXK,1SUG,1T48,1T49,1T4J,1WAX,1XBO,2AZR,2B07,2BGD,2BGE,
2CM2,2CM3,2CM7,2CM8,2CMA,2CMB,2CMC,2CNE,2CNF,2CNG,2CNH,2CNI,2F6T,2F6V,2F6W,2F6Y,2F6Z,2F70,2F71,2FJN,2H4G,2H4K,2HB1,2HNP,2HNQ,2QBP,2QBQ,2QBR,2QBS,2VEU,2VEV,2VEW,2VEX,2VEY,2ZMM,2ZN7,3A5J,3CWE,3D9C,3EAX,
3EB1,3EU0,3I7Z,3I80,3SME,4BJO,4I8N,4QBW,4Y14,5K9V,5K9W,5KA0,5KA1,5T19,6B90,6NTP,6W30,7KEY,7KLX,7LFO,7MN9,7MNA,8DU7,8G65,8G67,8G68,8G69,8G6A,8SKL

> <UniProt (SwissProt) Recommended Name of Target Chain>
Tyrosine-protein phosphatase non-receptor type 1

> <UniProt (SwissProt) Entry Name of Target Chain>
PTN1_HUMAN

> <UniProt (SwissProt) Primary ID of Target Chain>
P18031

> <UniProt (SwissProt) Secondary ID(s) of Target Chain>
Q5TGD8 Q9BQV9 Q9NQQ4

$$$$
Molecule
  SciTegic10242319433D

 69 74  0  0  0  0            999 V2000
    0.7804   -6.1984   -0.0031 C   0  0
    1.3294   -4.9343   -0.0075 C   0  0
   -0.9275   -6.0664    0.0065 S   0  0
    8.9054   -1.6534    0.0455 C   0  0
    9.9349   -2.9136    0.0451 C   0  0
    0.1764   -3.8591   -0.0013 C   0  0
   -1.1121   -4.4586    0.0051 C   0  0
    7.5887   -1.9554    0.0156 C   0  0
    7.0982   -3.3718   -0.0336 C   0  0
    9.4041   -4.1337   -0.0356 C   0  0
   11.4260   -2.9958    0.1696 O   0  0
    7.9738   -4.3650   -0.0757 C   0  0
    2.8734   -4.5361   -0.0180 C   0  0
    1.5236   -7.5756   -0.0054 C   0  0
    9.2300   -0.1038    0.0097 C   0  0
    5.6354   -3.7417   -0.0397 C   0  0
   13.6042   -1.8391    0.1116 C   0  0
   14.2288   -0.7717    0.1784 O   0  0
    3.2452   -3.2482   -0.0038 C   0  0
    3.9646   -5.5394   -0.0467 C   0  0
    5.2500   -5.1664   -0.0586 C   0  0
    4.6726   -2.8241   -0.0114 C   0  0
   12.1734   -1.8642    0.5530 C   0  0
    8.2557    0.7921    0.2051 C   0  0
   10.5512    0.4339   -0.2595 C   0  0
   10.5684   -5.6348   -0.0253 Br  0  0
    9.8187    2.6854   -0.0161 C   0  0
   14.2057   -2.9593   -0.4337 O   0  0
    0.6604   -8.8816   -0.0023 C   0  0
   10.8422    1.7228   -0.2642 C   0  0
    8.5690    2.2607    0.1958 C   0  0
    0.2767   -2.5332   -0.0033 C   0  0
   10.1440    4.0548    0.0057 O   0  0
   -2.2509   -3.7773    0.0087 C   0  0
   -0.6740   -8.8713   -0.0004 C   0  0
    1.3459  -10.1835   -0.0021 C   0  0
   11.5631    4.2476   -0.2127 C   0  0
   -0.9634   -1.7222    0.0013 C   0  0
   -2.1633   -2.3155    0.0065 C   0  0
   -1.4466  -10.1157    0.0018 C   0  0
    0.6457  -11.3199   -0.0002 C   0  0
   -0.8171  -11.2864    0.0018 C   0  0
    6.8604   -1.1445    0.0275 H   0  0
    7.6069   -5.3892   -0.1426 H   0  0
    2.1490   -7.6038   -0.8977 H   0  0
    2.1551   -7.6035    0.8826 H   0  0
    2.4716   -2.4805    0.0140 H   0  0
    3.7155   -6.6004   -0.0584 H   0  0
    6.0275   -5.9299   -0.0827 H   0  0
    4.9279   -1.7646    0.0062 H   0  0
   12.1599   -1.8095    1.6416 H   0  0
   11.6816   -0.9842    0.1384 H   0  0
    7.2325    0.4553    0.3713 H   0  0
   11.3551   -0.2710   -0.4714 H   0  0
   14.1815   -3.7444    0.2632 H   0  0
   11.8636    2.0504   -0.4576 H   0  0
    7.7721    2.9853    0.3629 H   0  0
    1.2543   -2.0512   -0.0083 H   0  0
   -3.2148   -4.2863    0.0131 H   0  0
   -1.2002   -7.9168   -0.0006 H   0  0
    2.4353  -10.2204   -0.0035 H   0  0
   11.7930    5.3128   -0.1920 H   0  0
   11.8412    3.8352   -1.1827 H   0  0
   12.1242    3.7400    0.5719 H   0  0
   -0.8980   -0.6342    0.0003 H   0  0
   -3.0716   -1.7129    0.0092 H   0  0
   -2.5361  -10.0817    0.0035 H   0  0
    1.1661  -12.2776   -0.0002 H   0  0
   -1.3870  -12.2155    0.0033 H   0  0
  2  1  2  0
  3  1  1  0
  4  8  2  0
  5 10  2  0
  6  2  1  0
  7  3  1  0
  8  9  1  0
  9 16  1  0
 10 12  1  0
 11  5  1  0
 12  9  2  0
 13  2  1  0
 14  1  1  0
 15  4  1  0
 16 21  1  0
 17 23  1  0
 18 17  2  0
 19 13  2  0
 20 13  1  0
 21 20  2  0
 22 19  1  0
 23 11  1  0
 24 15  2  0
 25 15  1  0
 26 10  1  0
 27 30  1  0
 28 17  1  0
 29 14  1  0
 30 25  2  0
 31 24  1  0
 32  6  2  0
 33 27  1  0
 34  7  2  0
 35 29  2  0
 36 29  1  0
 37 33  1  0
 38 32  1  0
 39 34  1  0
 40 35  1  0
 41 36  2  0
 42 41  1  0
  6  7  1  0
 38 39  2  0
 22 16  2  0
 40 42  2  0
  5  4  1  0
 31 27  2  0
  8 43  1  0
 12 44  1  0
 14 45  1  0
 14 46  1  0
 19 47  1  0
 20 48  1  0
 21 49  1  0
 22 50  1  0
 23 51  1  0
 23 52  1  0
 24 53  1  0
 25 54  1  0
 28 55  1  0
 30 56  1  0
 31 57  1  0
 32 58  1  0
 34 59  1  0
 35 60  1  0
 36 61  1  0
 37 62  1  0
 37 63  1  0
 37 64  1  0
 38 65  1  0
 39 66  1  0
 40 67  1  0
 41 68  1  0
 42 69  1  0
M  END
> <Name>
Molecule

> <Clean Energy>
62.0795

> <From>
www.bindingDB.org

> <BindingDB Reactant_set_id>
51015886

> <Ligand InChI>
InChI=1S/C36H27BrO4S/c1-40-28-17-15-25(16-18-28)30-20-27(21-31(37)36(30)41-22-34(38)39)24-11-13-26(14-12-24)35-29-9-5-6-10-32(29)42-33(35)19-23-7-3-2-4-8-23/h2-18,20-21H,19,22H2,1H3,(H,38,39)

> <Ligand InChI Key>
PEGJJUMNONDEID-UHFFFAOYSA-N

> <BindingDB MonomerID>
50086954

> <BindingDB Ligand Name>
CHEMBL278092::[4-(2-Benzyl-benzo[b]thiophen-3-yl)-5''-bromo-4''''-methoxy-[1,1'';3'',1'''']terphenyl-4''-yloxy]-acetic acid::[4-(2-Benzyl-benzo[b]thiophen-3-yl)-5'-bromo-4''-methoxy-[1,1':3',1'']terph
enyl-4'-yloxy]-acetic acid::[4-(2-Benzyl-benzo[b]thiophen-3-yl)-5'-bromo-4''-methoxy-[1,1';3',1'']terphenyl-4'-yloxy]-acetic acid

> <Target Name>
Tyrosine-protein phosphatase non-receptor type 1

> <Target Source Organism According to Curator or DataSource>
Homo sapiens

> <IC50 (nM)>
28.84

> <Curation/DataSource>
ChEMBL

> <Article DOI>
10.1016/j.bmcl.2010.04.033

> <BindingDB Entry DOI>
10.7270/Q27D2WCC

> <PMID>
20452766

> <Authors>
Cheng, Y; Zhou, M; Tung, CH; Ji, M; Zhang, F

> <Institution>
Tsinghua University

> <Link to Ligand in BindingDB>
http://www.bindingdb.org/bind/chemsearch/marvin/MolStructure.jsp?monomerid=50086954

> <Link to Ligand-Target Pair in BindingDB>
http://www.bindingdb.org/jsp/dbsearch/PrimarySearch_ki.jsp?energyterm=kJ/mole&tag=pol&polymerid=2622&target=Tyrosine-protein+phosphatase+non-receptor+type+1&column=ki&startPg=0&Increment=50&submit=Sea
rch
http://www.bindingdb.org/jsp/dbsearch/PrimarySearch_ki.jsp?energyterm=kJ/mole&tag=r21&monomerid=50086954&enzyme=Tyrosine-protein+phosphatase+non-receptor+type+1&column=ki&startPg=0&Increment=50&submit
=Search

> <PubChem CID of Ligand>
9960929

> <PubChem SID of Ligand>
103986065

> <ChEMBL ID of Ligand>
CHEMBL278092

> <ZINC ID of Ligand>
ZINC28758917

> <Number of Protein Chains in Target (bigger than 1 implies a multichain complex)>
1

> <BindingDB Target Chain Sequence>
MEMEKEFEQIDKSGSWAAIYQDIRHEASDFPCRVAKLPKNKNRNRYRDVSPFDHSRIKLHQEDNDYINASLIKMEEAQRSYILTQGPLPNTCGHFWEMVWEQKSRGVVMLNRVMEKGSLKCAQYWPQKEEKEMIFEDTNLKLTLISEDIKSYYTVRQLELENLTTQETREILHFHYTTWPDFGVPESPASFLNFLFKVRE
SGSLSPEHGPVVVHCSAGIGRSGTFCLADTCLLLMDKRKDPSSVDIKKVLLEMRKFRMGLIQTADQLRFSYLAVIEGAKFIMGDSSVQDQWKELSHEDLEPPPEHIPPPPRPPKRILEPHNGKCREFFPNHQWVKEETQEDKDCPIKEEKGSPLNAAPYGIESMSQDTEVRSRVVGGSLRGAQAASPAKGEPSLPEKDED
HALSYWKPFLVNMCVATVLTAGAYLCYRFLFNSNT

> <PDB ID(s) of Target Chain>
1BZJ,1G7G,1GFY,1JF7,1KAK,1KAV,1LQF,1NL9,1NNY,1NO6,1NZ7,1OEM,1OEO,1OES,1OET,1OEU,1OEV,1ONY,1ONZ,1PH0,1PXH,1PYN,1Q1M,1Q6J,1Q6M,1Q6N,1Q6P,1Q6S,1Q6T,1QXK,1SUG,1T48,1T49,1T4J,1WAX,1XBO,2AZR,2B07,2BGD,2BGE,
2CM2,2CM3,2CM7,2CM8,2CMA,2CMB,2CMC,2CNE,2CNF,2CNG,2CNH,2CNI,2F6T,2F6V,2F6W,2F6Y,2F6Z,2F70,2F71,2FJN,2H4G,2H4K,2HB1,2HNP,2HNQ,2QBP,2QBQ,2QBR,2QBS,2VEU,2VEV,2VEW,2VEX,2VEY,2ZMM,2ZN7,3A5J,3CWE,3D9C,3EAX,
3EB1,3EU0,3I7Z,3I80,3SME,4BJO,4I8N,4QBW,4Y14,5K9V,5K9W,5KA0,5KA1,5T19,6B90,6NTP,6W30,7KEY,7KLX,7LFO,7MN9,7MNA,8DU7,8G65,8G67,8G68,8G69,8G6A,8SKL

> <UniProt (SwissProt) Recommended Name of Target Chain>
Tyrosine-protein phosphatase non-receptor type 1

> <UniProt (SwissProt) Entry Name of Target Chain>
PTN1_HUMAN

> <UniProt (SwissProt) Primary ID of Target Chain>
P18031

> <UniProt (SwissProt) Secondary ID(s) of Target Chain>
Q5TGD8 Q9BQV9 Q9NQQ4

$$$$
Molecule
  SciTegic10242319433D

 68 73  0  0  0  0            999 V2000
   10.8338   -2.6392   -0.8646 S   0  0
    7.7145   -2.8503    0.0323 C   0  0
   -0.9007   -5.8729    0.0266 C   0  0
    8.1043   -1.5695   -0.2066 N   0  3
   -0.0894   -4.7766    0.0305 C   0  0
   -2.2504   -5.4761   -0.0282 O   0  0
   13.6036    0.8906    0.2667 C   0  0
    8.5765   -3.8473    0.3161 C   0  0
   10.0642   -3.7724    0.2733 O   0  0
   11.8963   -1.2797   -0.3003 C   0  0
   -1.0079   -3.6257   -0.0244 C   0  0
    6.2776   -3.0905    0.0125 C   0  0
   12.1882    1.1243    0.0013 C   0  0
   -2.2971   -4.1339   -0.0514 C   0  0
   14.4972    2.0277    0.5261 C   0  0
   11.3875    0.1008   -0.2719 C   0  0
    5.7685   -4.2829    0.2817 C   0  0
   14.0831   -0.3552    0.2499 C   0  0
   11.7786   -3.5328   -1.6451 O   0  0
    9.8127   -2.1069   -1.8496 O   0  0
    1.4699   -4.6922    0.0884 C   0  0
    9.1032   -1.1266    0.4791 O   0  5
   -0.4669   -7.3514    0.0648 C   0  0
    7.3466   -0.8046   -0.6705 O   0  0
    4.3007   -4.4519    0.2164 C   0  0
    7.9915   -5.1723    0.6633 C   0  0
   13.1905   -1.4942   -0.0602 C   0  0
   14.0502    3.1809    0.5330 O   0  0
    6.6689   -5.3797    0.6341 C   0  0
    2.2492   -5.7626    0.2965 C   0  0
    2.1411   -3.3897   -0.0767 C   0  0
    3.4662   -3.2797   -0.0233 C   0  0
    3.7242   -5.6421    0.3692 C   0  0
   11.6693    2.4150    0.0266 O   0  0
   15.8579    1.8151    0.7087 O   0  0
   -1.5917   -8.3964    0.0357 C   0  0
   -0.7690   -2.3167   -0.0332 C   0  0
   -3.3790   -3.3655   -0.0887 C   0  0
   -1.2585   -9.6868    0.0332 C   0  0
   -3.0172   -8.0294    0.0126 C   0  0
   -1.9330   -1.4052   -0.0785 C   0  0
   -3.1758   -1.9051   -0.1039 C   0  0
   -3.9596   -8.9698   -0.0102 C   0  0
   -2.2962  -10.7234    0.0073 C   0  0
   -3.5827  -10.3813   -0.0130 C   0  0
    5.6048   -2.2680   -0.2299 H   0  0
   10.3337    0.2867   -0.4790 H   0  0
   15.1365   -0.5343    0.4655 H   0  0
    0.1740   -7.5308   -0.7984 H   0  0
    0.1043   -7.5053    0.9803 H   0  0
    8.6538   -5.9901    0.9471 H   0  0
   13.5905   -2.5077   -0.0923 H   0  0
    6.2647   -6.3635    0.8724 H   0  0
    1.7879   -6.7430    0.4150 H   0  0
    1.5386   -2.4973   -0.2462 H   0  0
    3.9326   -2.3041   -0.1601 H   0  0
    4.3361   -6.5263    0.5474 H   0  0
   11.2650    2.6487   -0.9139 H   0  0
   16.0064    1.1833    1.5340 H   0  0
    0.2495   -1.9294   -0.0079 H   0  0
   -4.3795   -3.7977   -0.1074 H   0  0
   -0.2072   -9.9742    0.0505 H   0  0
   -3.3040   -6.9778    0.0142 H   0  0
   -1.7796   -0.3261   -0.0913 H   0  0
   -4.0342   -1.2342   -0.1357 H   0  0
   -5.0120   -8.6866   -0.0268 H   0  0
   -2.0134  -11.7760    0.0048 H   0  0
   -4.3529  -11.1524   -0.0317 H   0  0
  2  8  2  0
  3  5  2  0
  4  2  1  0
  5 21  1  0
  6  3  1  0
  7 18  2  0
  8  9  1  0
  9  1  1  0
 10  1  1  0
 11  5  1  0
 12  2  1  0
 13 16  2  0
 14 11  1  0
 15  7  1  0
 16 10  1  0
 17 29  1  0
 18 27  1  0
 19  1  2  0
 20  1  2  0
 21 30  2  0
 22  4  1  0
 23  3  1  0
 24  4  2  0
 25 17  1  0
 26  8  1  0
 27 10  2  0
 28 15  2  0
 29 26  2  0
 30 33  1  0
 31 32  2  0
 32 25  1  0
 33 25  2  0
 34 13  1  0
 35 15  1  0
 36 23  1  0
 37 11  2  0
 38 14  2  0
 39 36  2  0
 40 36  1  0
 41 37  1  0
 42 41  2  0
 43 40  2  0
 44 39  1  0
 45 43  1  0
 13  7  1  0
 12 17  2  0
 31 21  1  0
 14  6  1  0
 42 38  1  0
 44 45  2  0
 12 46  1  0
 16 47  1  0
 18 48  1  0
 23 49  1  0
 23 50  1  0
 26 51  1  0
 27 52  1  0
 29 53  1  0
 30 54  1  0
 31 55  1  0
 32 56  1  0
 33 57  1  0
 34 58  1  0
 35 59  1  0
 37 60  1  0
 38 61  1  0
 39 62  1  0
 40 63  1  0
 41 64  1  0
 42 65  1  0
 43 66  1  0
 44 67  1  0
 45 68  1  0
M  CHG  2   4   1  22  -1
M  END
> <Name>
Molecule

> <Clean Energy>
70.4171

> <From>
www.bindingDB.org

> <BindingDB Reactant_set_id>
50154672

> <Ligand InChI>
InChI=1S/C34H23NO9S/c36-29-20-25(15-16-26(29)34(37)38)45(41,42)44-31-17-14-24(19-28(31)35(39)40)22-10-12-23(13-11-22)33-27-8-4-5-9-30(27)43-32(33)18-21-6-2-1-3-7-21/h1-17,19-20,36H,18H2,(H,37,38)

> <Ligand InChI Key>
AJLYQTQBCUMMEM-UHFFFAOYSA-N

> <BindingDB MonomerID>
50086981

> <BindingDB Ligand Name>
4-[4''-(2-Benzyl-benzofuran-3-yl)-3-nitro-biphenyl-4-yloxysulfonyl]-2-hydroxy-benzoic acid::4-[4'-(2-Benzyl-benzofuran-3-yl)-3-nitro-biphenyl-4-yloxysulfonyl]-2-hydroxy-benzoic acid::CHEMBL538903

> <Target Name>
Tyrosine-protein phosphatase non-receptor type 1

> <Target Source Organism According to Curator or DataSource>
Homo sapiens

> <IC50 (nM)>
29

> <Curation/DataSource>
ChEMBL

> <Article DOI>
10.1021/jm990560c

> <BindingDB Entry DOI>
10.7270/Q2W958FT

> <PMID>
10753467

> <Authors>
Malamas, MS; Sredy, J; Moxham, C; Katz, A; Xu, W; McDevitt, R; Adebayo, FO; Sawicki, DR; Seestaller, L; Sullivan, D; Taylor, JR

> <Institution>
Wyeth-Ayerst Research

> <Link to Ligand in BindingDB>
http://www.bindingdb.org/bind/chemsearch/marvin/MolStructure.jsp?monomerid=50086981

> <Link to Ligand-Target Pair in BindingDB>
http://www.bindingdb.org/jsp/dbsearch/PrimarySearch_ki.jsp?energyterm=kJ/mole&tag=pol&polymerid=2622&target=Tyrosine-protein+phosphatase+non-receptor+type+1&column=ki&startPg=0&Increment=50&submit=Sea
rch
http://www.bindingdb.org/jsp/dbsearch/PrimarySearch_ki.jsp?energyterm=kJ/mole&tag=r21&monomerid=50086981&enzyme=Tyrosine-protein+phosphatase+non-receptor+type+1&column=ki&startPg=0&Increment=50&submit
=Search

> <PubChem CID of Ligand>
9895320

> <PubChem SID of Ligand>
103986092

> <ChEMBL ID of Ligand>
CHEMBL538903

> <ZINC ID of Ligand>
ZINC28758667

> <Number of Protein Chains in Target (bigger than 1 implies a multichain complex)>
1

> <BindingDB Target Chain Sequence>
MEMEKEFEQIDKSGSWAAIYQDIRHEASDFPCRVAKLPKNKNRNRYRDVSPFDHSRIKLHQEDNDYINASLIKMEEAQRSYILTQGPLPNTCGHFWEMVWEQKSRGVVMLNRVMEKGSLKCAQYWPQKEEKEMIFEDTNLKLTLISEDIKSYYTVRQLELENLTTQETREILHFHYTTWPDFGVPESPASFLNFLFKVRE
SGSLSPEHGPVVVHCSAGIGRSGTFCLADTCLLLMDKRKDPSSVDIKKVLLEMRKFRMGLIQTADQLRFSYLAVIEGAKFIMGDSSVQDQWKELSHEDLEPPPEHIPPPPRPPKRILEPHNGKCREFFPNHQWVKEETQEDKDCPIKEEKGSPLNAAPYGIESMSQDTEVRSRVVGGSLRGAQAASPAKGEPSLPEKDED
HALSYWKPFLVNMCVATVLTAGAYLCYRFLFNSNT

> <PDB ID(s) of Target Chain>
1BZJ,1G7G,1GFY,1JF7,1KAK,1KAV,1LQF,1NL9,1NNY,1NO6,1NZ7,1OEM,1OEO,1OES,1OET,1OEU,1OEV,1ONY,1ONZ,1PH0,1PXH,1PYN,1Q1M,1Q6J,1Q6M,1Q6N,1Q6P,1Q6S,1Q6T,1QXK,1SUG,1T48,1T49,1T4J,1WAX,1XBO,2AZR,2B07,2BGD,2BGE,
2CM2,2CM3,2CM7,2CM8,2CMA,2CMB,2CMC,2CNE,2CNF,2CNG,2CNH,2CNI,2F6T,2F6V,2F6W,2F6Y,2F6Z,2F70,2F71,2FJN,2H4G,2H4K,2HB1,2HNP,2HNQ,2QBP,2QBQ,2QBR,2QBS,2VEU,2VEV,2VEW,2VEX,2VEY,2ZMM,2ZN7,3A5J,3CWE,3D9C,3EAX,
3EB1,3EU0,3I7Z,3I80,3SME,4BJO,4I8N,4QBW,4Y14,5K9V,5K9W,5KA0,5KA1,5T19,6B90,6NTP,6W30,7KEY,7KLX,7LFO,7MN9,7MNA,8DU7,8G65,8G67,8G68,8G69,8G6A,8SKL

> <UniProt (SwissProt) Recommended Name of Target Chain>
Tyrosine-protein phosphatase non-receptor type 1

> <UniProt (SwissProt) Entry Name of Target Chain>
PTN1_HUMAN

> <UniProt (SwissProt) Primary ID of Target Chain>
P18031

> <UniProt (SwissProt) Secondary ID(s) of Target Chain>
Q5TGD8 Q9BQV9 Q9NQQ4

$$$$
Molecule
  SciTegic10242319433D

 66 71  0  0  0  0            999 V2000
   11.2383   -2.7231   -0.6952 S   0  0
   -0.9712   -2.8948   -0.0296 C   0  0
    8.6266   -1.8209    0.1722 C   0  0
   -0.1483   -1.7900   -0.0091 C   0  0
   10.0938   -1.6593    0.1345 O   0  0
   -2.6039   -2.3805   -0.0386 S   0  0
   13.5258   -6.6185    0.2932 C   0  0
   12.0416   -4.2451   -0.0857 C   0  0
   -1.0158   -0.4820   -0.0034 C   0  0
   -2.4099   -0.7665   -0.0180 C   0  0
    7.9544   -0.6931    0.4498 C   0  0
    7.8063   -3.0486   -0.1290 C   0  0
   12.0785   -6.6749    0.0952 C   0  0
   14.3081   -7.8592    0.4198 C   0  0
   11.3842   -5.5514   -0.0818 C   0  0
    5.7727   -1.7421    0.1615 C   0  0
    6.4728   -0.6472    0.4371 C   0  0
    6.4746   -2.9805   -0.1137 C   0  0
   14.1377   -5.4359    0.3215 C   0  0
   10.6245   -3.0469   -2.0409 O   0  0
   12.4258   -1.8099   -0.9352 O   0  0
    1.4372   -1.7746    0.0169 C   0  0
   -0.5477   -4.3988   -0.0317 C   0  0
    4.2880   -1.7283    0.1148 C   0  0
   13.3639   -4.2016    0.0958 C   0  0
   13.7475   -8.9590    0.3445 O   0  0
    2.1634   -2.8947   -0.0749 C   0  0
    2.1941   -0.5004    0.1630 C   0  0
    3.5303   -0.4800    0.2171 C   0  0
    3.6297   -2.8730   -0.0338 C   0  0
    8.9252    0.9098    0.7720 Br  0  0
    8.5271   -4.7303   -0.4823 Br  0  0
   11.4205   -7.9007    0.0818 O   0  0
   15.6945   -7.7986    0.5192 O   0  0
   -1.6430   -5.4863   -0.0174 C   0  0
   -0.6064    0.7828    0.0073 C   0  0
   -3.3579    0.1621   -0.0169 C   0  0
   -2.9457   -5.2054   -0.0109 C   0  0
   -1.2247   -6.8942   -0.0100 C   0  0
   -1.6246    1.8614    0.0087 C   0  0
   -2.9302    1.5643   -0.0014 C   0  0
   -2.1325   -7.8700    0.0024 C   0  0
   -3.9457   -6.2737    0.0025 C   0  0
   -3.5583   -7.5461    0.0087 C   0  0
   10.3053   -5.6071   -0.2264 H   0  0
    5.9563    0.2876    0.6546 H   0  0
    5.8966   -3.8827   -0.3140 H   0  0
   15.2096   -5.3808    0.5112 H   0  0
    0.0507   -4.5604   -0.9283 H   0  0
    0.0707   -4.5572    0.8518 H   0  0
   13.8780   -3.2406    0.0768 H   0  0
    1.6508   -3.8506   -0.1832 H   0  0
    1.6453    0.4391    0.2274 H   0  0
    4.0557    0.4674    0.3374 H   0  0
    4.1854   -3.8061   -0.1262 H   0  0
   10.7011   -7.9207    0.8464 H   0  0
   16.0876   -7.3369   -0.3380 H   0  0
    0.4569    1.0225    0.0149 H   0  0
   -4.4141   -0.1074   -0.0271 H   0  0
   -3.2710   -4.1651   -0.0156 H   0  0
   -0.1635   -7.1430   -0.0147 H   0  0
   -1.3075    2.9042    0.0180 H   0  0
   -3.6726    2.3623    0.0018 H   0  0
   -1.8113   -8.9115    0.0079 H   0  0
   -5.0073   -6.0269    0.0073 H   0  0
   -4.3007   -8.3441    0.0185 H   0  0
  2  4  2  0
  3  5  1  0
  4 22  1  0
  5  1  1  0
  6  2  1  0
  7 19  2  0
  8  1  1  0
  9  4  1  0
 10  9  1  0
 11  3  2  0
 12  3  1  0
 13 15  2  0
 14  7  1  0
 15  8  1  0
 16 18  1  0
 17 11  1  0
 18 12  2  0
 19 25  1  0
 20  1  2  0
 21  1  2  0
 22 27  2  0
 23  2  1  0
 24 16  1  0
 25  8  2  0
 26 14  2  0
 27 30  1  0
 28 29  2  0
 29 24  1  0
 30 24  2  0
 31 11  1  0
 32 12  1  0
 33 13  1  0
 34 14  1  0
 35 23  1  0
 36  9  2  0
 37 10  2  0
 38 35  2  0
 39 35  1  0
 40 36  1  0
 41 40  2  0
 42 39  2  0
 43 38  1  0
 44 42  1  0
 13  7  1  0
 17 16  2  0
 28 22  1  0
 10  6  1  0
 41 37  1  0
 43 44  2  0
 15 45  1  0
 17 46  1  0
 18 47  1  0
 19 48  1  0
 23 49  1  0
 23 50  1  0
 25 51  1  0
 27 52  1  0
 28 53  1  0
 29 54  1  0
 30 55  1  0
 33 56  1  0
 34 57  1  0
 36 58  1  0
 37 59  1  0
 38 60  1  0
 39 61  1  0
 40 62  1  0
 41 63  1  0
 42 64  1  0
 43 65  1  0
 44 66  1  0
M  END
> <Name>
Molecule

> <Clean Energy>
70.1442

> <From>
www.bindingDB.org

> <BindingDB Reactant_set_id>
50529046

> <Ligand InChI>
InChI=1S/C34H22Br2O6S2/c35-27-17-23(18-28(36)33(27)42-44(40,41)24-14-15-25(34(38)39)29(37)19-24)21-10-12-22(13-11-21)32-26-8-4-5-9-30(26)43-31(32)16-20-6-2-1-3-7-20/h1-15,17-19,37H,16H2,(H,38,39)

> <Ligand InChI Key>
HHKTZVRAKMMECF-UHFFFAOYSA-N

> <BindingDB MonomerID>
50086955

> <BindingDB Ligand Name>
4-[4''-(2-Benzyl-benzo[b]thiophen-3-yl)-3,5-dibromo-biphenyl-4-yloxysulfonyl]-2-hydroxy-benzoic acid::4-[4'-(2-Benzyl-benzo[b]thiophen-3-yl)-3,5-dibromo-biphenyl-4-yloxysulfonyl]-2-hydroxy-benzoic aci
d::CHEMBL285307

> <Target Name>
Tyrosine-protein phosphatase non-receptor type 1

> <Target Source Organism According to Curator or DataSource>
Homo sapiens

> <IC50 (nM)>
30

> <Curation/DataSource>
ChEMBL

> <Article DOI>
10.1016/j.ejmech.2016.05.060

> <BindingDB Entry DOI>
10.7270/Q25Q4Z2D

> <PMID>
27526040

> <Authors>
Meng, G; Zheng, M; Wang, M; Tong, J; Ge, W; Zhang, J; Zheng, A; Li, J; Gao, L; Li, J

> <Institution>
Xi'an Jiaotong University

> <Link to Ligand in BindingDB>
http://www.bindingdb.org/bind/chemsearch/marvin/MolStructure.jsp?monomerid=50086955

> <Link to Ligand-Target Pair in BindingDB>
http://www.bindingdb.org/jsp/dbsearch/PrimarySearch_ki.jsp?energyterm=kJ/mole&tag=pol&polymerid=2622&target=Tyrosine-protein+phosphatase+non-receptor+type+1&column=ki&startPg=0&Increment=50&submit=Sea
rch
http://www.bindingdb.org/jsp/dbsearch/PrimarySearch_ki.jsp?energyterm=kJ/mole&tag=r21&monomerid=50086955&enzyme=Tyrosine-protein+phosphatase+non-receptor+type+1&column=ki&startPg=0&Increment=50&submit
=Search

> <PubChem CID of Ligand>
9831951

> <PubChem SID of Ligand>
103986066

> <ChEMBL ID of Ligand>
CHEMBL285307

> <ZINC ID of Ligand>
ZINC95608522

> <Number of Protein Chains in Target (bigger than 1 implies a multichain complex)>
1

> <BindingDB Target Chain Sequence>
MEMEKEFEQIDKSGSWAAIYQDIRHEASDFPCRVAKLPKNKNRNRYRDVSPFDHSRIKLHQEDNDYINASLIKMEEAQRSYILTQGPLPNTCGHFWEMVWEQKSRGVVMLNRVMEKGSLKCAQYWPQKEEKEMIFEDTNLKLTLISEDIKSYYTVRQLELENLTTQETREILHFHYTTWPDFGVPESPASFLNFLFKVRE
SGSLSPEHGPVVVHCSAGIGRSGTFCLADTCLLLMDKRKDPSSVDIKKVLLEMRKFRMGLIQTADQLRFSYLAVIEGAKFIMGDSSVQDQWKELSHEDLEPPPEHIPPPPRPPKRILEPHNGKCREFFPNHQWVKEETQEDKDCPIKEEKGSPLNAAPYGIESMSQDTEVRSRVVGGSLRGAQAASPAKGEPSLPEKDED
HALSYWKPFLVNMCVATVLTAGAYLCYRFLFNSNT

> <PDB ID(s) of Target Chain>
1BZJ,1G7G,1GFY,1JF7,1KAK,1KAV,1LQF,1NL9,1NNY,1NO6,1NZ7,1OEM,1OEO,1OES,1OET,1OEU,1OEV,1ONY,1ONZ,1PH0,1PXH,1PYN,1Q1M,1Q6J,1Q6M,1Q6N,1Q6P,1Q6S,1Q6T,1QXK,1SUG,1T48,1T49,1T4J,1WAX,1XBO,2AZR,2B07,2BGD,2BGE,
2CM2,2CM3,2CM7,2CM8,2CMA,2CMB,2CMC,2CNE,2CNF,2CNG,2CNH,2CNI,2F6T,2F6V,2F6W,2F6Y,2F6Z,2F70,2F71,2FJN,2H4G,2H4K,2HB1,2HNP,2HNQ,2QBP,2QBQ,2QBR,2QBS,2VEU,2VEV,2VEW,2VEX,2VEY,2ZMM,2ZN7,3A5J,3CWE,3D9C,3EAX,
3EB1,3EU0,3I7Z,3I80,3SME,4BJO,4I8N,4QBW,4Y14,5K9V,5K9W,5KA0,5KA1,5T19,6B90,6NTP,6W30,7KEY,7KLX,7LFO,7MN9,7MNA,8DU7,8G65,8G67,8G68,8G69,8G6A,8SKL

> <UniProt (SwissProt) Recommended Name of Target Chain>
Tyrosine-protein phosphatase non-receptor type 1

> <UniProt (SwissProt) Entry Name of Target Chain>
PTN1_HUMAN

> <UniProt (SwissProt) Primary ID of Target Chain>
P18031

> <UniProt (SwissProt) Secondary ID(s) of Target Chain>
Q5TGD8 Q9BQV9 Q9NQQ4

$$$$
Molecule
  SciTegic10242319433D

 32 34  0  0  0  0            999 V2000
   10.9545   -9.5293    0.0547 C   0  0
   11.0159  -10.9164    0.0319 C   0  0
   13.3595   -9.4445    0.0655 C   0  0
   12.1359   -8.7753    0.0694 C   0  0
    9.6878   -8.9524    0.0531 O   0  0
   12.1548   -7.3273    0.0762 N   0  0
   13.5934   -6.4443   -0.0452 S   0  0
   12.8940   -4.9307   -0.1804 N   0  5
   11.5056   -5.0483   -0.0858 C   0  0
   10.9682   -6.4673    0.0944 C   0  0
   14.4403   -6.5495    1.2087 O   0  0
   14.3794   -6.8110   -1.2898 O   0  0
   10.7540   -4.0692   -0.1561 O   0  0
   13.4149  -10.8348    0.0451 C   0  0
   12.2381  -11.5708    0.0257 C   0  0
   12.2762  -12.9585   -0.0014 C   0  0
   13.4995  -13.6163   -0.0077 C   0  0
   14.6842  -12.8865    0.0145 C   0  0
   14.6402  -11.4952    0.0405 C   0  0
   15.9265  -13.5442    0.0093 O   0  0
   15.7591  -14.9729   -0.0226 C   0  0
   10.0934  -11.4969    0.0187 H   0  0
   14.2859   -8.8702    0.0786 H   0  0
    9.5688   -8.3656    0.9157 H   0  0
   10.4426   -6.5600    1.0448 H   0  0
   10.2938   -6.7279   -0.7213 H   0  0
   11.3484  -13.5303   -0.0176 H   0  0
   13.5316  -14.7056   -0.0301 H   0  0
   15.5671  -10.9219    0.0573 H   0  0
   16.7372  -15.4538   -0.0258 H   0  0
   15.2130  -15.2552   -0.9227 H   0  0
   15.2001  -15.2934    0.8566 H   0  0
  8  9  1  0
  9 10  1  0
 10  6  1  0
  3  4  4  0
  7 11  2  0
  4  1  4  0
  7 12  2  0
  9 13  2  0
  1  5  1  0
  1  2  4  0
 14 15  4  0
  4  6  1  0
 15 16  4  0
  6  7  1  0
 16 17  4  0
  2 15  4  0
 17 18  4  0
 18 19  4  0
 19 14  4  0
 14  3  4  0
 18 20  1  0
 20 21  1  0
  7  8  1  0
  2 22  1  0
  3 23  1  0
  5 24  1  0
 10 25  1  0
 10 26  1  0
 16 27  1  0
 17 28  1  0
 19 29  1  0
 21 30  1  0
 21 31  1  0
 21 32  1  0
M  CHG  1   8  -1
M  END
> <Name>
Molecule

> <Clean Energy>
11.2965

> <From>
www.bindingDB.org

> <BindingDB Reactant_set_id>
50159418

> <Ligand InChI>
InChI=1S/C13H12N2O5S/c1-20-10-3-2-8-6-12(16)11(5-9(8)4-10)15-7-13(17)14-21(15,18)19/h2-6H,7H2,1H3,(H2,14,16,17)/p-1

> <Ligand InChI Key>
PPBMEPKYDZUDAC-UHFFFAOYSA-M

> <BindingDB MonomerID>
50025835

> <BindingDB Ligand Name>
CHEMBL592291

> <Target Name>
Tyrosine-protein phosphatase non-receptor type 1

> <Target Source Organism According to Curator or DataSource>
Homo sapiens

> <IC50 (nM)>
<30

> <Curation/DataSource>
ChEMBL

> <Article DOI>
10.1021/jm901090b

> <BindingDB Entry DOI>
10.7270/Q28P60MB

> <PMID>
20000419

> <Authors>
Combs, AP

> <Institution>
Incyte Corporation

> <Link to Ligand in BindingDB>
http://www.bindingdb.org/bind/chemsearch/marvin/MolStructure.jsp?monomerid=50025835

> <Link to Ligand-Target Pair in BindingDB>
http://www.bindingdb.org/jsp/dbsearch/PrimarySearch_ki.jsp?energyterm=kJ/mole&tag=pol&polymerid=2622&target=Tyrosine-protein+phosphatase+non-receptor+type+1&column=ki&startPg=0&Increment=50&submit=Sea
rch
http://www.bindingdb.org/jsp/dbsearch/PrimarySearch_ki.jsp?energyterm=kJ/mole&tag=r21&monomerid=50025835&enzyme=Tyrosine-protein+phosphatase+non-receptor+type+1&column=ki&startPg=0&Increment=50&submit
=Search

> <PubChem CID of Ligand>
25102798

> <PubChem SID of Ligand>
277286601

> <ChEMBL ID of Ligand>
CHEMBL592291

> <Number of Protein Chains in Target (bigger than 1 implies a multichain complex)>
1

> <BindingDB Target Chain Sequence>
MEMEKEFEQIDKSGSWAAIYQDIRHEASDFPCRVAKLPKNKNRNRYRDVSPFDHSRIKLHQEDNDYINASLIKMEEAQRSYILTQGPLPNTCGHFWEMVWEQKSRGVVMLNRVMEKGSLKCAQYWPQKEEKEMIFEDTNLKLTLISEDIKSYYTVRQLELENLTTQETREILHFHYTTWPDFGVPESPASFLNFLFKVRE
SGSLSPEHGPVVVHCSAGIGRSGTFCLADTCLLLMDKRKDPSSVDIKKVLLEMRKFRMGLIQTADQLRFSYLAVIEGAKFIMGDSSVQDQWKELSHEDLEPPPEHIPPPPRPPKRILEPHNGKCREFFPNHQWVKEETQEDKDCPIKEEKGSPLNAAPYGIESMSQDTEVRSRVVGGSLRGAQAASPAKGEPSLPEKDED
HALSYWKPFLVNMCVATVLTAGAYLCYRFLFNSNT

> <PDB ID(s) of Target Chain>
1BZJ,1G7G,1GFY,1JF7,1KAK,1KAV,1LQF,1NL9,1NNY,1NO6,1NZ7,1OEM,1OEO,1OES,1OET,1OEU,1OEV,1ONY,1ONZ,1PH0,1PXH,1PYN,1Q1M,1Q6J,1Q6M,1Q6N,1Q6P,1Q6S,1Q6T,1QXK,1SUG,1T48,1T49,1T4J,1WAX,1XBO,2AZR,2B07,2BGD,2BGE,
2CM2,2CM3,2CM7,2CM8,2CMA,2CMB,2CMC,2CNE,2CNF,2CNG,2CNH,2CNI,2F6T,2F6V,2F6W,2F6Y,2F6Z,2F70,2F71,2FJN,2H4G,2H4K,2HB1,2HNP,2HNQ,2QBP,2QBQ,2QBR,2QBS,2VEU,2VEV,2VEW,2VEX,2VEY,2ZMM,2ZN7,3A5J,3CWE,3D9C,3EAX,
3EB1,3EU0,3I7Z,3I80,3SME,4BJO,4I8N,4QBW,4Y14,5K9V,5K9W,5KA0,5KA1,5T19,6B90,6NTP,6W30,7KEY,7KLX,7LFO,7MN9,7MNA,8DU7,8G65,8G67,8G68,8G69,8G6A,8SKL

> <UniProt (SwissProt) Recommended Name of Target Chain>
Tyrosine-protein phosphatase non-receptor type 1

> <UniProt (SwissProt) Entry Name of Target Chain>
PTN1_HUMAN

> <UniProt (SwissProt) Primary ID of Target Chain>
P18031

> <UniProt (SwissProt) Secondary ID(s) of Target Chain>
Q5TGD8 Q9BQV9 Q9NQQ4

$$$$
Molecule
  SciTegic10242319433D

 53 55  0  0  0  0            999 V2000
   -2.8711  -13.2686    0.0995 C   0  0
   -4.1101  -14.1214    0.0112 C   0  0
   -4.0024  -15.4562    0.0445 C   0  0
   -2.6373  -16.0516    0.1782 C   0  0
   -1.5614  -15.2762    0.2380 C   0  0
   -1.6620  -13.8432    0.1899 C   0  0
   -0.3646  -13.0327    0.2204 C   0  0
    1.0901  -14.1817    0.0639 S   0  0
    2.6802  -13.2618    0.1155 C   0  0
    5.1372  -13.5591    0.2887 C   0  0
    3.9570  -14.1424    0.0632 C   0  0
    3.9213  -15.5988   -0.2159 C   0  0
    5.0618  -16.3144   -0.2418 C   0  0
    6.3654  -15.6440    0.0202 C   0  0
    6.3811  -14.3453    0.2673 C   0  0
    7.6578  -16.4059    0.0051 C   0  0
    7.7495  -17.8357   -0.3600 C   0  0
    8.9280  -18.4632   -0.3769 C   0  0
   10.1671  -17.7084   -0.0175 C   0  0
   10.0737  -16.4222    0.3114 C   0  0
    8.7830  -15.7418    0.3213 C   0  0
   11.8919  -18.5258   -0.0210 Br  0  0
   -2.3593  -17.9335    0.2457 Br  0  0
   -5.2261  -16.4041   -0.1610 C   0  0
   -5.1174  -16.8395   -1.4615 F   0  0
   -5.1105  -17.5091    0.6462 F   0  0
   -6.7710  -15.7858    0.0207 P   0  0
   -6.9974  -15.4168    1.3308 O   0  0
   -7.0132  -14.5793   -0.9169 O   0  5
   -7.7649  -16.9232   -0.3636 O   0  5
    8.9962  -19.9315   -0.7918 C   0  0
    9.2499  -20.9935    0.6627 S   0  0
    7.8100  -20.2964   -1.3927 F   0  0
   10.0613  -20.1454   -1.6413 F   0  0
    9.3163  -22.6558    0.1488 N   0  0
   10.5488  -20.6436    1.3632 O   0  0
    8.0967  -20.8096    1.6282 O   0  0
   -2.9572  -12.1821    0.0899 H   0  0
   -5.0905  -13.6539   -0.0795 H   0  0
   -0.5778  -15.7375    0.3256 H   0  0
   -0.3591  -12.3251   -0.6086 H   0  0
   -0.2982  -12.4893    1.1630 H   0  0
    2.7042  -12.5828   -0.7368 H   0  0
    2.7061  -12.6857    1.0405 H   0  0
    5.1795  -12.4888    0.4908 H   0  0
    2.9672  -16.0923   -0.4009 H   0  0
    5.0308  -17.3830   -0.4543 H   0  0
    7.3321  -13.8481    0.4586 H   0  0
    6.8439  -18.3844   -0.6186 H   0  0
   10.9745  -15.8690    0.5773 H   0  0
    8.7307  -14.6861    0.5874 H   0  0
   10.1271  -22.7854   -0.5373 H   0  0
    8.3971  -22.9179   -0.3323 H   0  0
  8  9  1  0
 18 19  1  0
  9 11  1  0
 19 20  2  0
  4  5  2  0
 20 21  1  0
 21 16  2  0
 14 16  1  0
  2  3  2  0
 19 22  1  0
 10 11  2  0
  4 23  1  0
  5  6  1  0
  3 24  1  0
 11 12  1  0
 24 25  1  0
  6  1  2  0
 24 26  1  0
 12 13  2  0
 24 27  1  0
  1  2  1  0
 27 28  2  0
 13 14  1  0
 27 29  1  0
  6  7  1  0
 27 30  1  0
 14 15  2  0
 18 31  1  0
 15 10  1  0
 31 32  1  0
  3  4  1  0
 31 33  1  0
  7  8  1  0
 31 34  1  0
 16 17  1  0
 32 35  1  0
 32 36  2  0
 17 18  2  0
 32 37  2  0
  1 38  1  0
  2 39  1  0
  5 40  1  0
  7 41  1  0
  7 42  1  0
  9 43  1  0
  9 44  1  0
 10 45  1  0
 12 46  1  0
 13 47  1  0
 15 48  1  0
 17 49  1  0
 20 50  1  0
 21 51  1  0
 35 52  1  0
 35 53  1  0
M  CHG  2  29  -1  30  -1
M  END
> <Name>
Molecule

> <Clean Energy>
28.4442

> <From>
www.bindingDB.org

> <BindingDB Reactant_set_id>
50875071

> <Ligand InChI>
InChI=1S/C22H18Br2F4NO5PS2/c23-19-8-6-16(10-18(19)22(27,28)37(29,33)34)15-4-1-13(2-5-15)11-36-12-14-3-7-17(20(24)9-14)21(25,26)35(30,31)32/h1-10H,11-12H2,(H2,29,33,34)(H2,30,31,32)/p-2

> <Ligand InChI Key>
ZXMMUMQHUJFSEQ-UHFFFAOYSA-L

> <BindingDB MonomerID>
50243238

> <BindingDB Ligand Name>
({2-Bromo-4-[40-bromo-30-(difluorosulfamoylmethyl)biphenyl-4-ylmethylsulfanylmethyl]phenyl}difluoromethyl)phosphonic acid

> <Target Name>
Tyrosine-protein phosphatase non-receptor type 1

> <Target Source Organism According to Curator or DataSource>
Homo sapiens

> <IC50 (nM)>
30

> <Curation/DataSource>
ChEMBL

> <Article DOI>
10.1016/j.bmc.2008.05.062

> <BindingDB Entry DOI>
10.7270/Q2930V2P

> <PMID>
18555687

> <Authors>
Hussain, M; Ahmed, V; Hill, B; Ahmed, Z; Taylor, SD

> <Institution>
University of Waterloo

> <Link to Ligand in BindingDB>
http://www.bindingdb.org/bind/chemsearch/marvin/MolStructure.jsp?monomerid=50243238

> <Link to Ligand-Target Pair in BindingDB>
http://www.bindingdb.org/jsp/dbsearch/PrimarySearch_ki.jsp?energyterm=kJ/mole&tag=pol&polymerid=2622&target=Tyrosine-protein+phosphatase+non-receptor+type+1&column=ki&startPg=0&Increment=50&submit=Sea
rch
http://www.bindingdb.org/jsp/dbsearch/PrimarySearch_ki.jsp?energyterm=kJ/mole&tag=r21&monomerid=50243238&enzyme=Tyrosine-protein+phosphatase+non-receptor+type+1&column=ki&startPg=0&Increment=50&submit
=Search

> <PubChem CID of Ligand>
44560690

> <PubChem SID of Ligand>
104099554

> <ZINC ID of Ligand>
ZINC49807893

> <Number of Protein Chains in Target (bigger than 1 implies a multichain complex)>
1

> <BindingDB Target Chain Sequence>
MEMEKEFEQIDKSGSWAAIYQDIRHEASDFPCRVAKLPKNKNRNRYRDVSPFDHSRIKLHQEDNDYINASLIKMEEAQRSYILTQGPLPNTCGHFWEMVWEQKSRGVVMLNRVMEKGSLKCAQYWPQKEEKEMIFEDTNLKLTLISEDIKSYYTVRQLELENLTTQETREILHFHYTTWPDFGVPESPASFLNFLFKVRE
SGSLSPEHGPVVVHCSAGIGRSGTFCLADTCLLLMDKRKDPSSVDIKKVLLEMRKFRMGLIQTADQLRFSYLAVIEGAKFIMGDSSVQDQWKELSHEDLEPPPEHIPPPPRPPKRILEPHNGKCREFFPNHQWVKEETQEDKDCPIKEEKGSPLNAAPYGIESMSQDTEVRSRVVGGSLRGAQAASPAKGEPSLPEKDED
HALSYWKPFLVNMCVATVLTAGAYLCYRFLFNSNT

> <PDB ID(s) of Target Chain>
1BZJ,1G7G,1GFY,1JF7,1KAK,1KAV,1LQF,1NL9,1NNY,1NO6,1NZ7,1OEM,1OEO,1OES,1OET,1OEU,1OEV,1ONY,1ONZ,1PH0,1PXH,1PYN,1Q1M,1Q6J,1Q6M,1Q6N,1Q6P,1Q6S,1Q6T,1QXK,1SUG,1T48,1T49,1T4J,1WAX,1XBO,2AZR,2B07,2BGD,2BGE,
2CM2,2CM3,2CM7,2CM8,2CMA,2CMB,2CMC,2CNE,2CNF,2CNG,2CNH,2CNI,2F6T,2F6V,2F6W,2F6Y,2F6Z,2F70,2F71,2FJN,2H4G,2H4K,2HB1,2HNP,2HNQ,2QBP,2QBQ,2QBR,2QBS,2VEU,2VEV,2VEW,2VEX,2VEY,2ZMM,2ZN7,3A5J,3CWE,3D9C,3EAX,
3EB1,3EU0,3I7Z,3I80,3SME,4BJO,4I8N,4QBW,4Y14,5K9V,5K9W,5KA0,5KA1,5T19,6B90,6NTP,6W30,7KEY,7KLX,7LFO,7MN9,7MNA,8DU7,8G65,8G67,8G68,8G69,8G6A,8SKL

> <UniProt (SwissProt) Recommended Name of Target Chain>
Tyrosine-protein phosphatase non-receptor type 1

> <UniProt (SwissProt) Entry Name of Target Chain>
PTN1_HUMAN

> <UniProt (SwissProt) Primary ID of Target Chain>
P18031

> <UniProt (SwissProt) Secondary ID(s) of Target Chain>
Q5TGD8 Q9BQV9 Q9NQQ4

$$$$
Molecule
  SciTegic10242319433D

 68 70  0  0  0  0            999 V2000
    0.6068   -2.3248   -0.1351 S   0  0
    8.2435   -5.9841    0.2499 C   0  0
    9.8557   -5.6631    0.0469 P   0  0
    7.1185   -4.9770   -0.0685 C   0  0
    2.0752   -3.2896    0.1740 N   0  0
    1.7654   -4.6801   -0.3370 C   0  0
    0.6495   -5.5131    0.2602 C   0  0
    7.1977   -3.4576   -0.1797 C   0  0
    0.6921   -0.5482    0.0120 C   0  0
    0.5999   -6.8761   -0.0925 N   0  0
    5.9524   -5.5510   -0.1461 C   0  0
    0.1774   -2.6101   -1.5596 O   0  0
   -0.5297   -2.7591    0.7690 O   0  0
    3.3439   -2.7121   -0.5681 C   0  0
   10.2560   -4.5904    0.8150 O   0  0
    1.7993    5.6974    0.0141 C   0  0
    6.0352   -2.7716   -0.3441 C   0  0
   -0.2579   -5.0187    0.9311 O   0  0
    8.0599   -6.2740    1.5797 F   0  0
    7.9235   -7.1396   -0.4410 F   0  0
   -0.6012   -7.6642    0.2964 C   0  0
    4.7311   -3.4936   -0.4086 C   0  0
   10.1944   -5.4238   -1.4437 O   0  0
   10.6179   -6.9226    0.5451 O   0  0
    0.6857    6.2302   -0.0502 O   0  0
   -0.4638    0.1137   -0.0178 C   0  0
    1.9508    0.1998    0.0873 C   0  0
    8.8158   -2.4720   -0.0856 Br  0  0
    0.5960    3.6477    0.0741 O   0  0
    4.7598   -4.8169   -0.3251 C   0  0
    1.9090    4.2078    0.0957 C   0  0
    0.6442    2.2521    0.0735 C   0  0
    2.9482    6.4793   -0.0022 O   0  0
   -0.6513   -9.2189    0.1652 C   0  0
   -0.4928    1.5670    0.0221 C   0  0
    1.9301    1.5324    0.1126 C   0  0
    1.6941   -7.3984   -0.8891 C   0  0
   -1.8564   -9.7854    0.0886 C   0  0
    0.5423  -10.1029    0.1629 C   0  0
    0.4087  -11.4249    0.0690 C   0  0
   -1.9990  -11.2414   -0.0174 C   0  0
   -0.9208  -12.0213   -0.0279 C   0  0
    1.5360   -4.5738   -1.3973 H   0  0
    2.6798   -5.2616   -0.2192 H   0  0
    5.8949   -6.6368   -0.0700 H   0  0
    3.1102   -2.6817   -1.6324 H   0  0
    3.4998   -1.6978   -0.2008 H   0  0
    6.0562   -1.6852   -0.4296 H   0  0
   -0.7844   -7.4412    1.3475 H   0  0
   -1.4249   -7.2810   -0.3058 H   0  0
    9.9507   -6.2801   -2.0003 H   0  0
   10.3922   -7.0916    1.5566 H   0  0
   -1.4001   -0.4415   -0.0730 H   0  0
    2.9013   -0.3325    0.1225 H   0  0
    3.8192   -5.3629   -0.3981 H   0  0
    2.4800    3.8355   -0.7549 H   0  0
    2.4113    3.9279    1.0217 H   0  0
    3.4973    6.3137    0.8774 H   0  0
   -1.4469    2.0939    0.0100 H   0  0
    2.8650    2.0905    0.1623 H   0  0
    1.5272   -8.4572   -1.0867 H   0  0
    2.6311   -7.2741   -0.3462 H   0  0
    1.7474   -6.8570   -1.8336 H   0  0
   -2.7474   -9.1578    0.1050 H   0  0
    1.5377   -9.6653    0.2388 H   0  0
    1.2929  -12.0623    0.0646 H   0  0
   -2.9916  -11.6861   -0.0878 H   0  0
   -1.0298  -13.1029   -0.1087 H   0  0
  2  4  1  0
  3  2  1  0
  4 11  2  0
  5  1  1  0
  6  5  1  0
  7  6  1  0
  8 17  2  0
  9  1  1  0
 10  7  1  0
 11 30  1  0
 12  1  2  0
 13  1  2  0
 14  5  1  0
 15  3  2  0
 16 31  1  0
 17 22  1  0
 18  7  2  0
 19  2  1  0
 20  2  1  0
 21 10  1  0
 22 14  1  0
 23  3  1  0
 24  3  1  0
 25 16  2  0
 26  9  2  0
 27  9  1  0
 28  8  1  0
 29 32  1  0
 30 22  2  0
 31 29  1  0
 32 36  1  0
 33 16  1  0
 34 21  1  0
 35 26  1  0
 36 27  2  0
 37 10  1  0
 38 34  2  0
 39 34  1  0
 40 39  2  0
 41 38  1  0
 42 40  1  0
 35 32  2  0
  8  4  1  0
 41 42  2  0
  6 43  1  0
  6 44  1  0
 11 45  1  0
 14 46  1  0
 14 47  1  0
 17 48  1  0
 21 49  1  0
 21 50  1  0
 23 51  1  0
 24 52  1  0
 26 53  1  0
 27 54  1  0
 30 55  1  0
 31 56  1  0
 31 57  1  0
 33 58  1  0
 35 59  1  0
 36 60  1  0
 37 61  1  0
 37 62  1  0
 37 63  1  0
 38 64  1  0
 39 65  1  0
 40 66  1  0
 41 67  1  0
 42 68  1  0
M  END
> <Name>
Molecule

> <Clean Energy>
54.9503

> <From>
www.bindingDB.org

> <BindingDB Reactant_set_id>
50315615

> <Ligand InChI>
InChI=1S/C26H26BrF2N2O9PS/c1-30(14-18-5-3-2-4-6-18)24(32)16-31(42(38,39)21-10-8-20(9-11-21)40-17-25(33)34)15-19-7-12-22(23(27)13-19)26(28,29)41(35,36)37/h2-13H,14-17H2,1H3,(H,33,34)(H2,35,36,37)

> <Ligand InChI Key>
DRGILYSXCIOSKI-UHFFFAOYSA-N

> <BindingDB MonomerID>
50171106

> <BindingDB Ligand Name>
(4-{[(Benzyl-methyl-carbamoyl)-methyl]-[3-bromo-4-(difluoro-phosphono-methyl)-benzyl]-sulfamoyl}-phenoxy)-acetic acid::CHEMBL372592

> <Target Name>
Tyrosine-protein phosphatase non-receptor type 1

> <Target Source Organism According to Curator or DataSource>
Homo sapiens

> <IC50 (nM)>
31

> <Curation/DataSource>
ChEMBL

> <Article DOI>
10.1016/j.bmcl.2005.06.061

> <BindingDB Entry DOI>
10.7270/Q2M61JSK

> <PMID>
16046123

> <Authors>
Holmes, CP; Li, X; Pan, Y; Xu, C; Bhandari, A; Moody, CM; Miguel, JA; Ferla, SW; De Francisco, MN; Frederick, BT; Zhou, S; Macher, N; Jang, L; Irvine, JD; Grove, JR

> <Institution>
Affymax, Inc.

> <Link to Ligand in BindingDB>
http://www.bindingdb.org/bind/chemsearch/marvin/MolStructure.jsp?monomerid=50171106

> <Link to Ligand-Target Pair in BindingDB>
http://www.bindingdb.org/jsp/dbsearch/PrimarySearch_ki.jsp?energyterm=kJ/mole&tag=pol&polymerid=2622&target=Tyrosine-protein+phosphatase+non-receptor+type+1&column=ki&startPg=0&Increment=50&submit=Sea
rch
http://www.bindingdb.org/jsp/dbsearch/PrimarySearch_ki.jsp?energyterm=kJ/mole&tag=r21&monomerid=50171106&enzyme=Tyrosine-protein+phosphatase+non-receptor+type+1&column=ki&startPg=0&Increment=50&submit
=Search

> <PubChem CID of Ligand>
44404297

> <PubChem SID of Ligand>
104057403

> <ChEMBL ID of Ligand>
CHEMBL372592

> <ZINC ID of Ligand>
ZINC28528345

> <Number of Protein Chains in Target (bigger than 1 implies a multichain complex)>
1

> <BindingDB Target Chain Sequence>
MEMEKEFEQIDKSGSWAAIYQDIRHEASDFPCRVAKLPKNKNRNRYRDVSPFDHSRIKLHQEDNDYINASLIKMEEAQRSYILTQGPLPNTCGHFWEMVWEQKSRGVVMLNRVMEKGSLKCAQYWPQKEEKEMIFEDTNLKLTLISEDIKSYYTVRQLELENLTTQETREILHFHYTTWPDFGVPESPASFLNFLFKVRE
SGSLSPEHGPVVVHCSAGIGRSGTFCLADTCLLLMDKRKDPSSVDIKKVLLEMRKFRMGLIQTADQLRFSYLAVIEGAKFIMGDSSVQDQWKELSHEDLEPPPEHIPPPPRPPKRILEPHNGKCREFFPNHQWVKEETQEDKDCPIKEEKGSPLNAAPYGIESMSQDTEVRSRVVGGSLRGAQAASPAKGEPSLPEKDED
HALSYWKPFLVNMCVATVLTAGAYLCYRFLFNSNT

> <PDB ID(s) of Target Chain>
1BZJ,1G7G,1GFY,1JF7,1KAK,1KAV,1LQF,1NL9,1NNY,1NO6,1NZ7,1OEM,1OEO,1OES,1OET,1OEU,1OEV,1ONY,1ONZ,1PH0,1PXH,1PYN,1Q1M,1Q6J,1Q6M,1Q6N,1Q6P,1Q6S,1Q6T,1QXK,1SUG,1T48,1T49,1T4J,1WAX,1XBO,2AZR,2B07,2BGD,2BGE,
2CM2,2CM3,2CM7,2CM8,2CMA,2CMB,2CMC,2CNE,2CNF,2CNG,2CNH,2CNI,2F6T,2F6V,2F6W,2F6Y,2F6Z,2F70,2F71,2FJN,2H4G,2H4K,2HB1,2HNP,2HNQ,2QBP,2QBQ,2QBR,2QBS,2VEU,2VEV,2VEW,2VEX,2VEY,2ZMM,2ZN7,3A5J,3CWE,3D9C,3EAX,
3EB1,3EU0,3I7Z,3I80,3SME,4BJO,4I8N,4QBW,4Y14,5K9V,5K9W,5KA0,5KA1,5T19,6B90,6NTP,6W30,7KEY,7KLX,7LFO,7MN9,7MNA,8DU7,8G65,8G67,8G68,8G69,8G6A,8SKL

> <UniProt (SwissProt) Recommended Name of Target Chain>
Tyrosine-protein phosphatase non-receptor type 1

> <UniProt (SwissProt) Entry Name of Target Chain>
PTN1_HUMAN

> <UniProt (SwissProt) Primary ID of Target Chain>
P18031

> <UniProt (SwissProt) Secondary ID(s) of Target Chain>
Q5TGD8 Q9BQV9 Q9NQQ4

$$$$
Molecule
  SciTegic10242319433D

 63 66  0  0  0  0            999 V2000
    1.0014  -15.9166   -1.2010 O   0  0
    0.9874  -15.0457    0.0425 S   0  0
    0.9691  -15.9263    1.2784 O   0  0
    2.4556  -13.1395   -1.0477 F   0  0
    2.4579  -13.9701    0.0537 C   0  0
    2.4576  -13.1623    1.1689 F   0  0
    5.7197  -19.3915   -1.4809 O   0  0
    6.1498  -19.6650   -0.0529 S   0  0
    4.9799  -19.3704    0.8659 O   0  0
    7.5440  -18.5803    0.3212 N   0  0
    8.8140  -19.1700   -0.2851 C   0  0
    7.3349  -17.1771   -0.2896 C   0  0
    6.3197  -21.4392    0.0744 C   0  0
    5.1852  -22.1335    0.0219 C   0  0
    5.1920  -23.5808    0.0638 C   0  0
    6.3445  -24.2409    0.1453 C   0  0
    7.6086  -23.4906    0.2057 C   0  0
    7.5984  -22.1564    0.1741 C   0  0
    6.0546  -16.3413   -0.1034 C   0  0
    6.1368  -14.8831   -0.2469 C   0  0
    5.0320  -14.1366   -0.1770 C   0  0
    3.7275  -14.7805    0.0356 C   0  0
    3.6655  -16.0952    0.1768 C   0  0
    4.8675  -16.8905    0.1012 C   0  0
   10.2067  -18.4614   -0.1303 C   0  0
   11.2954  -19.1751   -0.4372 C   0  0
   12.6353  -18.5678   -0.3624 C   0  0
   12.7805  -17.3049   -0.0094 C   0  0
   11.6060  -16.5020    0.3347 C   0  0
   10.3922  -17.0513    0.2885 C   0  0
   14.1007  -16.6748    0.0363 C   0  0
   15.2359  -17.3532   -0.2101 C   0  0
   16.4004  -16.1941   -0.0454 S   0  0
   15.4828  -14.9082    0.3098 N   0  0
   14.3109  -15.2615    0.3308 N   0  0
    6.3571  -25.6451    0.1652 O   0  0
    5.0179  -26.1696    0.0882 C   0  0
    5.0627  -27.6645    0.0441 C   0  0
    3.8792  -28.3948   -0.0099 O   0  0
    6.1516  -28.2484    0.0464 O   0  0
   -0.4431  -14.0588    0.0262 N   0  0
    5.1204  -12.8057   -0.3044 F   0  0
    8.6311  -19.2563   -1.3562 H   0  0
    8.9264  -20.1648    0.1460 H   0  0
    7.4524  -17.3024   -1.3660 H   0  0
    8.1482  -16.5623    0.0961 H   0  0
    4.2355  -21.6038   -0.0538 H   0  0
    4.2514  -24.1306    0.0285 H   0  0
    8.5556  -24.0256    0.2765 H   0  0
    8.5349  -21.6008    0.2221 H   0  0
    7.1037  -14.4075   -0.4113 H   0  0
    2.7041  -16.5785    0.3506 H   0  0
    4.7960  -17.9721    0.2156 H   0  0
   11.1902  -20.2153   -0.7453 H   0  0
   13.5142  -19.1668   -0.6007 H   0  0
   11.7234  -15.4587    0.6277 H   0  0
    9.5225  -16.4543    0.5628 H   0  0
   15.3571  -18.4078   -0.4575 H   0  0
    4.4530  -25.8500    0.9640 H   0  0
    4.5337  -25.7951   -0.8136 H   0  0
    3.2981  -28.1837    0.8388 H   0  0
   -1.3098  -14.6862    0.0158 H   0  0
   -0.4405  -13.4404   -0.8471 H   0  0
 21 22  1  0
  9  8  2  0
 22 23  2  0
  8 13  1  0
 23 24  1  0
 24 19  2  0
 22  5  1  0
  5  4  1  0
 11 25  1  0
 13 14  2  0
 25 26  2  0
  6  5  1  0
 26 27  1  0
 14 15  1  0
 27 28  2  0
 28 29  1  0
 15 16  2  0
 29 30  2  0
 30 25  1  0
 31 32  2  0
  2  1  2  0
 16 17  1  0
  3  2  2  0
 17 18  2  0
 18 13  1  0
 32 33  1  0
 33 34  1  0
 34 35  2  0
 35 31  1  0
 28 31  1  0
 10 11  1  0
 16 36  1  0
 12 19  1  0
 36 37  1  0
 10  8  1  0
 37 38  1  0
 19 20  1  0
 38 39  1  0
  8  7  2  0
 38 40  2  0
  5  2  1  0
 20 21  2  0
  2 41  1  0
 10 12  1  0
 21 42  1  0
 11 43  1  0
 11 44  1  0
 12 45  1  0
 12 46  1  0
 14 47  1  0
 15 48  1  0
 17 49  1  0
 18 50  1  0
 20 51  1  0
 23 52  1  0
 24 53  1  0
 26 54  1  0
 27 55  1  0
 29 56  1  0
 30 57  1  0
 32 58  1  0
 37 59  1  0
 37 60  1  0
 39 61  1  0
 41 62  1  0
 41 63  1  0
M  END
> <Name>
Molecule

> <Clean Energy>
59.7378

> <From>
www.bindingDB.org

> <BindingDB Reactant_set_id>
50713190

> <Ligand InChI>
InChI=1S/C25H21F3N4O7S3/c26-22-11-17(3-10-21(22)25(27,28)42(29,37)38)13-32(12-16-1-4-18(5-2-16)23-15-40-31-30-23)41(35,36)20-8-6-19(7-9-20)39-14-24(33)34/h1-11,15H,12-14H2,(H,33,34)(H2,29,37,38)

> <Ligand InChI Key>
OGMLETJFLKSCML-UHFFFAOYSA-N

> <BindingDB MonomerID>
50362186

> <BindingDB Ligand Name>
CHEMBL1938819

> <Target Name>
Tyrosine-protein phosphatase non-receptor type 1

> <Target Source Organism According to Curator or DataSource>
Homo sapiens

> <IC50 (nM)>
31

> <Curation/DataSource>
ChEMBL

> <Article DOI>
10.1016/j.bmcl.2011.11.122

> <BindingDB Entry DOI>
10.7270/Q2ZS2X05

> <PMID>
22189136

> <Authors>
Patel, D; Jain, M; Shah, SR; Bahekar, R; Jadav, P; Joharapurkar, A; Dhanesha, N; Shaikh, M; Sairam, KV; Kapadnis, P

> <Institution>
M.S. University of Baroda

> <Link to Ligand in BindingDB>
http://www.bindingdb.org/bind/chemsearch/marvin/MolStructure.jsp?monomerid=50362186

> <Link to Ligand-Target Pair in BindingDB>
http://www.bindingdb.org/jsp/dbsearch/PrimarySearch_ki.jsp?energyterm=kJ/mole&tag=pol&polymerid=2622&target=Tyrosine-protein+phosphatase+non-receptor+type+1&column=ki&startPg=0&Increment=50&submit=Sea
rch
http://www.bindingdb.org/jsp/dbsearch/PrimarySearch_ki.jsp?energyterm=kJ/mole&tag=r21&monomerid=50362186&enzyme=Tyrosine-protein+phosphatase+non-receptor+type+1&column=ki&startPg=0&Increment=50&submit
=Search

> <PubChem CID of Ligand>
57395948

> <PubChem SID of Ligand>
136966248

> <ChEMBL ID of Ligand>
CHEMBL1938819

> <ZINC ID of Ligand>
ZINC82165170

> <Number of Protein Chains in Target (bigger than 1 implies a multichain complex)>
1

> <BindingDB Target Chain Sequence>
MEMEKEFEQIDKSGSWAAIYQDIRHEASDFPCRVAKLPKNKNRNRYRDVSPFDHSRIKLHQEDNDYINASLIKMEEAQRSYILTQGPLPNTCGHFWEMVWEQKSRGVVMLNRVMEKGSLKCAQYWPQKEEKEMIFEDTNLKLTLISEDIKSYYTVRQLELENLTTQETREILHFHYTTWPDFGVPESPASFLNFLFKVRE
SGSLSPEHGPVVVHCSAGIGRSGTFCLADTCLLLMDKRKDPSSVDIKKVLLEMRKFRMGLIQTADQLRFSYLAVIEGAKFIMGDSSVQDQWKELSHEDLEPPPEHIPPPPRPPKRILEPHNGKCREFFPNHQWVKEETQEDKDCPIKEEKGSPLNAAPYGIESMSQDTEVRSRVVGGSLRGAQAASPAKGEPSLPEKDED
HALSYWKPFLVNMCVATVLTAGAYLCYRFLFNSNT

> <PDB ID(s) of Target Chain>
1BZJ,1G7G,1GFY,1JF7,1KAK,1KAV,1LQF,1NL9,1NNY,1NO6,1NZ7,1OEM,1OEO,1OES,1OET,1OEU,1OEV,1ONY,1ONZ,1PH0,1PXH,1PYN,1Q1M,1Q6J,1Q6M,1Q6N,1Q6P,1Q6S,1Q6T,1QXK,1SUG,1T48,1T49,1T4J,1WAX,1XBO,2AZR,2B07,2BGD,2BGE,
2CM2,2CM3,2CM7,2CM8,2CMA,2CMB,2CMC,2CNE,2CNF,2CNG,2CNH,2CNI,2F6T,2F6V,2F6W,2F6Y,2F6Z,2F70,2F71,2FJN,2H4G,2H4K,2HB1,2HNP,2HNQ,2QBP,2QBQ,2QBR,2QBS,2VEU,2VEV,2VEW,2VEX,2VEY,2ZMM,2ZN7,3A5J,3CWE,3D9C,3EAX,
3EB1,3EU0,3I7Z,3I80,3SME,4BJO,4I8N,4QBW,4Y14,5K9V,5K9W,5KA0,5KA1,5T19,6B90,6NTP,6W30,7KEY,7KLX,7LFO,7MN9,7MNA,8DU7,8G65,8G67,8G68,8G69,8G6A,8SKL

> <UniProt (SwissProt) Recommended Name of Target Chain>
Tyrosine-protein phosphatase non-receptor type 1

> <UniProt (SwissProt) Entry Name of Target Chain>
PTN1_HUMAN

> <UniProt (SwissProt) Primary ID of Target Chain>
P18031

> <UniProt (SwissProt) Secondary ID(s) of Target Chain>
Q5TGD8 Q9BQV9 Q9NQQ4

$$$$
Molecule
  SciTegic10242319433D

 59 63  0  0  0  0            999 V2000
    3.5375  -20.5626    0.3544 C   0  0
    3.8067  -21.9994    0.5466 C   0  0
    5.0387  -22.4942    0.5244 C   0  0
    6.1270  -21.5868    0.2860 C   0  0
    5.9221  -20.2914    0.1227 C   0  0
    4.5851  -19.7160    0.1377 C   0  0
    4.5782  -18.2548   -0.0308 N   0  0
    6.0555  -17.4281   -0.1394 S   0  0
    5.4458  -15.8799   -0.0829 N   0  0
    4.0548  -15.9283   -0.0255 C   0  0
    3.4301  -17.3271   -0.0237 C   0  0
    3.3656  -14.9042    0.0288 O   0  0
    6.7682  -17.6983   -1.4498 O   0  0
    6.9519  -17.7096    1.0547 O   0  0
    5.2216  -24.0026    0.8193 C   0  0
    6.1964  -24.9314   -0.0344 C   0  0  2  0  0  0
    6.0757  -26.3461    0.4429 N   0  0
    4.6446  -27.3308   -0.0691 S   0  0
    4.9204  -27.7719   -1.4924 O   0  0
    4.6066  -28.5804    0.7914 O   0  0
    2.9708  -26.6249   -0.0859 C   0  0
    2.7174  -25.3930   -0.5243 C   0  0
    1.3522  -24.8702   -0.5602 C   0  0
    0.3366  -25.6421   -0.1848 C   0  0
    0.5937  -27.0094    0.2674 C   0  0
    1.8424  -27.4746    0.3196 C   0  0
    7.6726  -24.5230    0.0382 C   0  0
    8.7777  -25.4410    0.1175 N   0  0
    8.0824  -23.3140   -0.0078 N   0  0
    9.4416  -23.3131    0.0527 C   0  0
    9.8862  -24.6127    0.1244 C   0  0
   11.1743  -24.9234    0.1879 C   0  0
   12.1388  -23.7915    0.1814 C   0  0
   11.6952  -22.5268    0.1149 C   0  0
   10.2494  -22.2619    0.0441 C   0  0
    2.0745  -20.1728    0.4021 C   0  0
    2.9686  -22.6763    0.7121 H   0  0
    7.1442  -21.9754    0.2388 H   0  0
    6.7791  -19.6349   -0.0275 H   0  0
    6.0323  -14.9850   -0.0898 H   0  0
    2.8231  -17.4749    0.8695 H   0  0
    2.8137  -17.4729   -0.9108 H   0  0
    5.5671  -24.0692    1.8510 H   0  0
    4.2305  -24.4490    0.7380 H   0  0
    5.8808  -24.8930   -1.0770 H   0  0
    6.9489  -26.8652    0.1066 H   0  0
    3.5413  -24.7641   -0.8618 H   0  0
    1.1673  -23.8493   -0.8943 H   0  0
   -0.6829  -25.2577   -0.2138 H   0  0
   -0.2376  -27.6497    0.5625 H   0  0
    2.0273  -28.4916    0.6653 H   0  0
    8.7492  -26.5097    0.1607 H   0  0
   11.5098  -25.9590    0.2421 H   0  0
   13.2095  -23.9897    0.2309 H   0  0
   12.4035  -21.6983    0.1132 H   0  0
    9.8596  -21.2456   -0.0130 H   0  0
    1.4680  -21.0583    0.5916 H   0  0
    1.7843  -19.7315   -0.5514 H   0  0
    1.9171  -19.4476    1.2005 H   0  0
 17 18  1  0
  4  5  2  0
 18 19  2  0
  2  3  2  0
 18 20  2  0
  8  9  1  0
 18 21  1  0
  9 10  1  0
 21 22  2  0
 10 11  1  0
 22 23  1  0
 11  7  1  0
 23 24  2  0
  5  6  1  0
 24 25  1  0
 10 12  2  0
 25 26  2  0
 26 21  1  0
  6  1  2  0
 16 27  1  0
 28 31  1  0
  8 13  2  0
  6  7  1  0
 27 28  1  0
 30 29  1  0
 29 27  2  0
  8 14  2  0
  7  8  1  0
 30 31  1  0
  3 15  1  0
 31 32  2  0
  1  2  1  0
 32 33  1  0
 16 15  1  0
 33 34  2  0
  3  4  1  0
 34 35  1  0
 35 30  2  0
 16 17  1  0
  1 36  1  0
  2 37  1  0
  4 38  1  0
  5 39  1  0
  9 40  1  0
 11 41  1  0
 11 42  1  0
 15 43  1  0
 15 44  1  0
 16 45  1  0
 17 46  1  0
 22 47  1  0
 23 48  1  0
 24 49  1  0
 25 50  1  0
 26 51  1  0
 28 52  1  0
 32 53  1  0
 33 54  1  0
 34 55  1  0
 35 56  1  0
 36 57  1  0
 36 58  1  0
 36 59  1  0
M  END
> <Name>
Molecule

> <Clean Energy>
80.5023

> <From>
www.bindingDB.org

> <BindingDB Reactant_set_id>
50529048

> <Ligand InChI>
InChI=1S/C24H23N5O5S2/c1-16-13-17(11-12-22(16)29-15-23(30)28-36(29,33)34)14-21(24-25-19-9-5-6-10-20(19)26-24)27-35(31,32)18-7-3-2-4-8-18/h2-13,21,27H,14-15H2,1H3,(H,25,26)(H,28,30)/t21-/m0/s1

> <Ligand InChI Key>
YLNOMGVKHWICPM-NRFANRHFSA-N

> <BindingDB MonomerID>
50308846

> <BindingDB Ligand Name>
CHEMBL592245::N-{(S)-1-(1H-Benzoimidazol-2-yl)-2-[3-methyl-4-(1,1,4-trioxo-1lambda*6*-[1,2,5]thiadiazolidin-2-yl)-phenyl]-ethyl}-benzenesulfonamide

> <Target Name>
Tyrosine-protein phosphatase non-receptor type 1

> <Target Source Organism According to Curator or DataSource>
Homo sapiens

> <IC50 (nM)>
32

> <Curation/DataSource>
ChEMBL

> <Article DOI>
10.1016/j.ejmech.2016.05.060

> <BindingDB Entry DOI>
10.7270/Q25Q4Z2D

> <PMID>
27526040

> <Authors>
Meng, G; Zheng, M; Wang, M; Tong, J; Ge, W; Zhang, J; Zheng, A; Li, J; Gao, L; Li, J

> <Institution>
Xi'an Jiaotong University

> <Link to Ligand in BindingDB>
http://www.bindingdb.org/bind/chemsearch/marvin/MolStructure.jsp?monomerid=50308846

> <Link to Ligand-Target Pair in BindingDB>
http://www.bindingdb.org/jsp/dbsearch/PrimarySearch_ki.jsp?energyterm=kJ/mole&tag=pol&polymerid=2622&target=Tyrosine-protein+phosphatase+non-receptor+type+1&column=ki&startPg=0&Increment=50&submit=Sea
rch
http://www.bindingdb.org/jsp/dbsearch/PrimarySearch_ki.jsp?energyterm=kJ/mole&tag=r21&monomerid=50308846&enzyme=Tyrosine-protein+phosphatase+non-receptor+type+1&column=ki&startPg=0&Increment=50&submit
=Search

> <PubChem CID of Ligand>
46230105

> <PubChem SID of Ligand>
104163207

> <ChEMBL ID of Ligand>
CHEMBL592245

> <ZINC ID of Ligand>
ZINC49756883

> <Number of Protein Chains in Target (bigger than 1 implies a multichain complex)>
1

> <BindingDB Target Chain Sequence>
MEMEKEFEQIDKSGSWAAIYQDIRHEASDFPCRVAKLPKNKNRNRYRDVSPFDHSRIKLHQEDNDYINASLIKMEEAQRSYILTQGPLPNTCGHFWEMVWEQKSRGVVMLNRVMEKGSLKCAQYWPQKEEKEMIFEDTNLKLTLISEDIKSYYTVRQLELENLTTQETREILHFHYTTWPDFGVPESPASFLNFLFKVRE
SGSLSPEHGPVVVHCSAGIGRSGTFCLADTCLLLMDKRKDPSSVDIKKVLLEMRKFRMGLIQTADQLRFSYLAVIEGAKFIMGDSSVQDQWKELSHEDLEPPPEHIPPPPRPPKRILEPHNGKCREFFPNHQWVKEETQEDKDCPIKEEKGSPLNAAPYGIESMSQDTEVRSRVVGGSLRGAQAASPAKGEPSLPEKDED
HALSYWKPFLVNMCVATVLTAGAYLCYRFLFNSNT

> <PDB ID(s) of Target Chain>
1BZJ,1G7G,1GFY,1JF7,1KAK,1KAV,1LQF,1NL9,1NNY,1NO6,1NZ7,1OEM,1OEO,1OES,1OET,1OEU,1OEV,1ONY,1ONZ,1PH0,1PXH,1PYN,1Q1M,1Q6J,1Q6M,1Q6N,1Q6P,1Q6S,1Q6T,1QXK,1SUG,1T48,1T49,1T4J,1WAX,1XBO,2AZR,2B07,2BGD,2BGE,
2CM2,2CM3,2CM7,2CM8,2CMA,2CMB,2CMC,2CNE,2CNF,2CNG,2CNH,2CNI,2F6T,2F6V,2F6W,2F6Y,2F6Z,2F70,2F71,2FJN,2H4G,2H4K,2HB1,2HNP,2HNQ,2QBP,2QBQ,2QBR,2QBS,2VEU,2VEV,2VEW,2VEX,2VEY,2ZMM,2ZN7,3A5J,3CWE,3D9C,3EAX,
3EB1,3EU0,3I7Z,3I80,3SME,4BJO,4I8N,4QBW,4Y14,5K9V,5K9W,5KA0,5KA1,5T19,6B90,6NTP,6W30,7KEY,7KLX,7LFO,7MN9,7MNA,8DU7,8G65,8G67,8G68,8G69,8G6A,8SKL

> <UniProt (SwissProt) Recommended Name of Target Chain>
Tyrosine-protein phosphatase non-receptor type 1

> <UniProt (SwissProt) Entry Name of Target Chain>
PTN1_HUMAN

> <UniProt (SwissProt) Primary ID of Target Chain>
P18031

> <UniProt (SwissProt) Secondary ID(s) of Target Chain>
Q5TGD8 Q9BQV9 Q9NQQ4

$$$$
2
  SciTegic10242319433D

 60 64  0  0  0  0            999 V2000
    1.5794    5.3824   -0.2290 C   0  0
    0.7902    6.4673   -0.2173 C   0  0
   -0.6928    6.3172   -0.1642 C   0  0
    0.9740    4.0457   -0.1924 C   0  0
   -0.3497    3.9800   -0.1525 C   0  0
   -1.1697    5.0785   -0.1351 C   0  0
   -2.3478    3.1891   -0.0548 C   0  0
   -2.4892    4.6257   -0.0746 N   0  0
   -1.1113    2.8661   -0.0999 N   0  0
   -3.5206    2.1512    0.0949 C   0  0  2  0  0  0
   -3.3738    0.7463   -0.7483 C   0  0
   -2.1168   -0.1700   -0.4720 C   0  0
   -1.0838    0.3136    0.1782 C   0  0
   -2.0282   -1.5755   -0.9378 C   0  0
   -0.9079   -2.2834   -0.6969 C   0  0
    0.2411   -1.6566    0.0309 C   0  0
    0.1123   -0.3864    0.4337 C   0  0
    1.5434   -2.4306    0.3258 C   0  0  2  0  0  0
    2.7825   -2.0442   -0.5397 C   0  0
    1.5414   -4.1797    0.1046 S   0  0
    0.6449   -4.8960    1.0939 O   0  0
    1.2250   -4.5556   -1.3308 O   0  0
    3.1955   -4.3144    0.3844 N   0  0
    3.7901   -3.0911   -0.0305 C   0  0
    5.0079   -2.8816    0.0179 O   0  0
   -4.8005    2.8783   -0.2041 N   0  0
   -7.7119    2.9022    0.0428 C   0  0
   -8.7371    5.0986   -0.0773 C   0  0
  -10.0507    4.4461   -0.0531 C   0  0
  -10.1315    3.1184    0.0147 C   0  0
   -8.9071    2.3113    0.0664 C   0  0
   -7.6239    4.3651   -0.0321 C   0  0
   -6.2341    1.9074    0.1180 S   0  0
   -6.3737    0.7656   -0.8707 O   0  0
   -6.1400    1.3162    1.5113 O   0  0
    1.1926    0.3751    1.1738 C   0  0
    2.6632    5.4929   -0.2656 H   0  0
    1.2345    7.4622   -0.2466 H   0  0
   -1.3539    7.1837   -0.1500 H   0  0
    1.5872    3.1445   -0.1976 H   0  0
   -3.3889    5.2043   -0.0491 H   0  0
   -3.5590    1.8771    1.1491 H   0  0
   -4.2604    0.1490   -0.5354 H   0  0
   -3.3559    1.0065   -1.8066 H   0  0
   -1.1570    1.3359    0.5492 H   0  0
   -2.8626   -2.0315   -1.4705 H   0  0
   -0.8372   -3.3178   -1.0334 H   0  0
    1.8043   -2.2376    1.3664 H   0  0
    2.5841   -2.1569   -1.6055 H   0  0
    3.1174   -1.0268   -0.3375 H   0  0
    3.7038   -5.1608    0.7967 H   0  0
   -4.8017    3.1557   -1.2376 H   0  0
   -8.6705    6.1852   -0.1324 H   0  0
  -10.9594    5.0469   -0.0906 H   0  0
  -11.1066    2.6316    0.0317 H   0  0
   -8.9748    1.2250    0.1243 H   0  0
   -6.6490    4.8523   -0.0507 H   0  0
    2.0622   -0.2677    1.3106 H   0  0
    0.8155    0.6874    2.1477 H   0  0
    1.4786    1.2543    0.5964 H   0  0
  1  2  2  0
  1  4  1  0
  2  3  1  0
  3  6  2  0
  5  4  2  0
  9  5  1  0
  6  8  1  0
  8  7  1  0
  7  9  2  0
  6  5  1  0
 10  7  1  0
 10 11  1  0
 10 26  1  0
 11 12  1  0
 13 12  2  0
 12 14  1  0
 13 17  1  0
 14 15  2  0
 15 16  1  0
 16 17  2  0
 18 16  1  0
 18 19  1  0
 18 20  1  0
 19 24  1  0
 20 23  1  0
 23 24  1  0
 20 21  2  0
 20 22  2  0
 24 25  2  0
 26 33  1  0
 33 27  1  0
 31 27  2  0
 27 32  1  0
 28 29  1  0
 28 32  2  0
 29 30  2  0
 30 31  1  0
 33 34  2  0
 33 35  2  0
 17 36  1  0
  1 37  1  0
  2 38  1  0
  3 39  1  0
  4 40  1  0
  8 41  1  0
 10 42  1  0
 11 43  1  0
 11 44  1  0
 13 45  1  0
 14 46  1  0
 15 47  1  0
 18 48  1  0
 19 49  1  0
 19 50  1  0
 23 51  1  0
 26 52  1  0
 28 53  1  0
 29 54  1  0
 30 55  1  0
 31 56  1  0
 32 57  1  0
 36 58  1  0
 36 59  1  0
 36 60  1  0
M  END
> <Name>
2

> <Clean Energy>
85.5713

> <From>
www.bindingDB.org

> <BindingDB Reactant_set_id>
50554757

> <Ligand InChI>
InChI=1S/C25H24N4O5S2/c1-16-13-17(11-12-19(16)23-15-24(30)29-36(23,33)34)14-22(25-26-20-9-5-6-10-21(20)27-25)28-35(31,32)18-7-3-2-4-8-18/h2-13,22-23,28H,14-15H2,1H3,(H,26,27)(H,29,30)/t22-,23-/m0/s1

> <Ligand InChI Key>
FBFPKPPWVZPZDO-GOTSBHOMSA-N

> <BindingDB MonomerID>
14269

> <BindingDB Ligand Name>
(S)-isothiazolidinone::IZD deriv. 2::N-[(1S)-1-(1H-1,3-benzodiazol-2-yl)-2-{3-methyl-4-[(5S)-1,1,3-trioxo-1,2-thiazolidin-5-yl]phenyl}ethyl]benzenesulfonamide

> <Target Name>
Tyrosine-protein phosphatase non-receptor type 1

> <Target Source Organism According to Curator or DataSource>
Homo sapiens

> <IC50 (nM)>
32

> <Curation/DataSource>
ChEMBL

> <Article DOI>
10.1021/jm901090b

> <BindingDB Entry DOI>
10.7270/Q28P60MB

> <PMID>
20000419

> <Authors>
Combs, AP

> <Institution>
Incyte Corporation

> <Link to Ligand in BindingDB>
http://www.bindingdb.org/bind/chemsearch/marvin/MolStructure.jsp?monomerid=14269

> <Link to Ligand-Target Pair in BindingDB>
http://www.bindingdb.org/jsp/dbsearch/PrimarySearch_ki.jsp?energyterm=kJ/mole&tag=pol&polymerid=2622&target=Tyrosine-protein+phosphatase+non-receptor+type+1&column=ki&startPg=0&Increment=50&submit=Sea
rch
http://www.bindingdb.org/jsp/dbsearch/PrimarySearch_ki.jsp?energyterm=kJ/mole&tag=r21&monomerid=14269&enzyme=Tyrosine-protein+phosphatase+non-receptor+type+1&column=ki&startPg=0&Increment=50&submit=Se
arch

> <PubChem CID of Ligand>
11226572

> <PubChem SID of Ligand>
46514615

> <ZINC ID of Ligand>
ZINC14210463

> <Number of Protein Chains in Target (bigger than 1 implies a multichain complex)>
1

> <BindingDB Target Chain Sequence>
MEMEKEFEQIDKSGSWAAIYQDIRHEASDFPCRVAKLPKNKNRNRYRDVSPFDHSRIKLHQEDNDYINASLIKMEEAQRSYILTQGPLPNTCGHFWEMVWEQKSRGVVMLNRVMEKGSLKCAQYWPQKEEKEMIFEDTNLKLTLISEDIKSYYTVRQLELENLTTQETREILHFHYTTWPDFGVPESPASFLNFLFKVRE
SGSLSPEHGPVVVHCSAGIGRSGTFCLADTCLLLMDKRKDPSSVDIKKVLLEMRKFRMGLIQTADQLRFSYLAVIEGAKFIMGDSSVQDQWKELSHEDLEPPPEHIPPPPRPPKRILEPHNGKCREFFPNHQWVKEETQEDKDCPIKEEKGSPLNAAPYGIESMSQDTEVRSRVVGGSLRGAQAASPAKGEPSLPEKDED
HALSYWKPFLVNMCVATVLTAGAYLCYRFLFNSNT

> <PDB ID(s) of Target Chain>
1BZJ,1G7G,1GFY,1JF7,1KAK,1KAV,1LQF,1NL9,1NNY,1NO6,1NZ7,1OEM,1OEO,1OES,1OET,1OEU,1OEV,1ONY,1ONZ,1PH0,1PXH,1PYN,1Q1M,1Q6J,1Q6M,1Q6N,1Q6P,1Q6S,1Q6T,1QXK,1SUG,1T48,1T49,1T4J,1WAX,1XBO,2AZR,2B07,2BGD,2BGE,
2CM2,2CM3,2CM7,2CM8,2CMA,2CMB,2CMC,2CNE,2CNF,2CNG,2CNH,2CNI,2F6T,2F6V,2F6W,2F6Y,2F6Z,2F70,2F71,2FJN,2H4G,2H4K,2HB1,2HNP,2HNQ,2QBP,2QBQ,2QBR,2QBS,2VEU,2VEV,2VEW,2VEX,2VEY,2ZMM,2ZN7,3A5J,3CWE,3D9C,3EAX,
3EB1,3EU0,3I7Z,3I80,3SME,4BJO,4I8N,4QBW,4Y14,5K9V,5K9W,5KA0,5KA1,5T19,6B90,6NTP,6W30,7KEY,7KLX,7LFO,7MN9,7MNA,8DU7,8G65,8G67,8G68,8G69,8G6A,8SKL

> <UniProt (SwissProt) Recommended Name of Target Chain>
Tyrosine-protein phosphatase non-receptor type 1

> <UniProt (SwissProt) Entry Name of Target Chain>
PTN1_HUMAN

> <UniProt (SwissProt) Primary ID of Target Chain>
P18031

> <UniProt (SwissProt) Secondary ID(s) of Target Chain>
Q5TGD8 Q9BQV9 Q9NQQ4

$$$$
Molecule
  SciTegic10242319433D

 66 70  0  0  0  0            999 V2000
   10.9833   -2.3213   -0.7595 S   0  0
   -1.0380   -2.5209   -0.0771 C   0  0
   -0.1946   -1.4266   -0.0190 C   0  0
   -2.6275   -1.9529   -0.0591 S   0  0
   -1.0663   -0.1003    0.0242 C   0  0
   -2.3740   -0.3352    0.0090 C   0  0
   13.2628   -6.1960    0.2409 C   0  0
   11.7974   -3.8252   -0.2053 C   0  0
   13.9628   -4.9222    0.0698 C   0  0
   14.0334   -7.4460    0.4150 C   0  0
   13.2684   -3.8061   -0.1366 C   0  0
   10.0241   -1.3209    0.3014 O   0  0
   11.9253   -6.2244    0.2095 C   0  0
   10.1721   -2.6481   -1.9970 O   0  0
   12.1307   -1.4259   -1.1835 O   0  0
    1.3968   -1.4681   -0.0041 C   0  0
   -0.6479   -4.0277   -0.1090 C   0  0
   11.1489   -4.9791   -0.0469 C   0  0
    4.2593   -1.4955    0.1106 C   0  0
    5.7532   -1.5111    0.1764 C   0  0
   13.4422   -8.5264    0.5161 O   0  0
    2.0993   -2.5646   -0.2869 C   0  0
    2.1805   -0.2571    0.3662 C   0  0
    3.5148   -0.2795    0.4301 C   0  0
    3.5811   -2.5887   -0.2484 C   0  0
    6.3947   -0.5041    0.7749 C   0  0
    6.5432   -2.6109   -0.4168 C   0  0
    8.5896   -1.4697    0.2808 C   0  0
   15.3548   -4.8686    0.1171 O   0  0
   15.4289   -7.4275    0.3798 O   0  0
   -1.7716   -5.0881   -0.0625 C   0  0
    7.8833   -2.5847   -0.3850 C   0  0
    7.8660   -0.4948    0.8371 C   0  0
   -0.5472    1.3215    0.0729 C   0  0
   -3.4601    0.7049    0.0377 C   0  0
   -3.0665   -4.7750   -0.0303 C   0  0
   -1.3875   -6.5063   -0.0507 C   0  0
   -2.3180   -7.4598   -0.0095 C   0  0
   -4.0920   -5.8203    0.0142 C   0  0
   -3.7350   -7.1018    0.0239 C   0  0
   13.7977   -2.8609   -0.2570 H   0  0
   11.4001   -7.1655    0.3727 H   0  0
   -0.0881   -4.1944   -1.0293 H   0  0
   -0.0004   -4.2093    0.7487 H   0  0
   10.0609   -5.0111   -0.1045 H   0  0
    1.5655   -3.4761   -0.5559 H   0  0
    1.6528    0.6699    0.5906 H   0  0
    4.0548    0.6205    0.7242 H   0  0
    4.1177   -3.4996   -0.5135 H   0  0
    5.8273    0.3137    1.2188 H   0  0
    6.0310   -3.4515   -0.8849 H   0  0
   15.7227   -4.5021   -0.7955 H   0  0
   15.7512   -7.0638   -0.5511 H   0  0
    8.4537   -3.3879   -0.8514 H   0  0
    8.3742    0.3236    1.3470 H   0  0
   -1.3877    2.0151    0.0948 H   0  0
    0.0616    1.5170   -0.8099 H   0  0
    0.0586    1.4571    0.9688 H   0  0
   -4.4336    0.2151    0.0159 H   0  0
   -3.3625    1.3569   -0.8303 H   0  0
   -3.3724    1.2974    0.9484 H   0  0
   -3.3667   -3.7272   -0.0371 H   0  0
   -0.3329   -6.7808   -0.0758 H   0  0
   -2.0217   -8.5087   -0.0006 H   0  0
   -5.1472   -5.5481    0.0393 H   0  0
   -4.4959   -7.8817    0.0566 H   0  0
  2  3  2  0
  3 16  1  0
  4  2  1  0
  5  3  1  0
  6  5  2  0
  7 13  2  0
  8  1  1  0
  9 11  2  0
 10  7  1  0
 11  8  1  0
 12  1  1  0
 13 18  1  0
 14  1  2  0
 15  1  2  0
 16 22  2  0
 17  2  1  0
 18  8  2  0
 19 20  1  0
 20 26  2  0
 21 10  2  0
 22 25  1  0
 23 24  2  0
 24 19  1  0
 25 19  2  0
 26 33  1  0
 27 32  2  0
 28 12  1  0
 29  9  1  0
 30 10  1  0
 31 17  1  0
 32 28  1  0
 33 28  2  0
 34  5  1  0
 35  6  1  0
 36 31  2  0
 37 31  1  0
 38 37  2  0
 39 36  1  0
 40 38  1  0
  9  7  1  0
 20 27  1  0
 23 16  1  0
  6  4  1  0
 39 40  2  0
 11 41  1  0
 13 42  1  0
 17 43  1  0
 17 44  1  0
 18 45  1  0
 22 46  1  0
 23 47  1  0
 24 48  1  0
 25 49  1  0
 26 50  1  0
 27 51  1  0
 29 52  1  0
 30 53  1  0
 32 54  1  0
 33 55  1  0
 34 56  1  0
 34 57  1  0
 34 58  1  0
 35 59  1  0
 35 60  1  0
 35 61  1  0
 36 62  1  0
 37 63  1  0
 38 64  1  0
 39 65  1  0
 40 66  1  0
M  END
> <Name>
Molecule

> <Clean Energy>
57.083

> <From>
www.bindingDB.org

> <BindingDB Reactant_set_id>
50154636

> <Ligand InChI>
InChI=1S/C32H26O6S2/c1-20-21(2)39-30(18-22-6-4-3-5-7-22)31(20)25-10-8-23(9-11-25)24-12-14-26(15-13-24)38-40(36,37)27-16-17-28(32(34)35)29(33)19-27/h3-17,19,33H,18H2,1-2H3,(H,34,35)

> <Ligand InChI Key>
MRBQIVGEXITXHT-UHFFFAOYSA-N

> <BindingDB MonomerID>
50086951

> <BindingDB Ligand Name>
4-[4'-(2-Benzyl-4,5-dimethyl-thiophen-3-yl)-biphenyl-4-yloxysulfonyl]-2-hydroxy-benzoic acid::CHEMBL24566

> <Target Name>
Tyrosine-protein phosphatase non-receptor type 1

> <Target Source Organism According to Curator or DataSource>
Homo sapiens

> <IC50 (nM)>
32

> <Curation/DataSource>
ChEMBL

> <Article DOI>
10.1021/jm990560c

> <BindingDB Entry DOI>
10.7270/Q2W958FT

> <PMID>
10753467

> <Authors>
Malamas, MS; Sredy, J; Moxham, C; Katz, A; Xu, W; McDevitt, R; Adebayo, FO; Sawicki, DR; Seestaller, L; Sullivan, D; Taylor, JR

> <Institution>
Wyeth-Ayerst Research

> <Link to Ligand in BindingDB>
http://www.bindingdb.org/bind/chemsearch/marvin/MolStructure.jsp?monomerid=50086951

> <Link to Ligand-Target Pair in BindingDB>
http://www.bindingdb.org/jsp/dbsearch/PrimarySearch_ki.jsp?energyterm=kJ/mole&tag=pol&polymerid=2622&target=Tyrosine-protein+phosphatase+non-receptor+type+1&column=ki&startPg=0&Increment=50&submit=Sea
rch
http://www.bindingdb.org/jsp/dbsearch/PrimarySearch_ki.jsp?energyterm=kJ/mole&tag=r21&monomerid=50086951&enzyme=Tyrosine-protein+phosphatase+non-receptor+type+1&column=ki&startPg=0&Increment=50&submit
=Search

> <PubChem CID of Ligand>
10555074

> <PubChem SID of Ligand>
103986062

> <ChEMBL ID of Ligand>
CHEMBL24566

> <ZINC ID of Ligand>
ZINC28758747

> <Number of Protein Chains in Target (bigger than 1 implies a multichain complex)>
1

> <BindingDB Target Chain Sequence>
MEMEKEFEQIDKSGSWAAIYQDIRHEASDFPCRVAKLPKNKNRNRYRDVSPFDHSRIKLHQEDNDYINASLIKMEEAQRSYILTQGPLPNTCGHFWEMVWEQKSRGVVMLNRVMEKGSLKCAQYWPQKEEKEMIFEDTNLKLTLISEDIKSYYTVRQLELENLTTQETREILHFHYTTWPDFGVPESPASFLNFLFKVRE
SGSLSPEHGPVVVHCSAGIGRSGTFCLADTCLLLMDKRKDPSSVDIKKVLLEMRKFRMGLIQTADQLRFSYLAVIEGAKFIMGDSSVQDQWKELSHEDLEPPPEHIPPPPRPPKRILEPHNGKCREFFPNHQWVKEETQEDKDCPIKEEKGSPLNAAPYGIESMSQDTEVRSRVVGGSLRGAQAASPAKGEPSLPEKDED
HALSYWKPFLVNMCVATVLTAGAYLCYRFLFNSNT

> <PDB ID(s) of Target Chain>
1BZJ,1G7G,1GFY,1JF7,1KAK,1KAV,1LQF,1NL9,1NNY,1NO6,1NZ7,1OEM,1OEO,1OES,1OET,1OEU,1OEV,1ONY,1ONZ,1PH0,1PXH,1PYN,1Q1M,1Q6J,1Q6M,1Q6N,1Q6P,1Q6S,1Q6T,1QXK,1SUG,1T48,1T49,1T4J,1WAX,1XBO,2AZR,2B07,2BGD,2BGE,
2CM2,2CM3,2CM7,2CM8,2CMA,2CMB,2CMC,2CNE,2CNF,2CNG,2CNH,2CNI,2F6T,2F6V,2F6W,2F6Y,2F6Z,2F70,2F71,2FJN,2H4G,2H4K,2HB1,2HNP,2HNQ,2QBP,2QBQ,2QBR,2QBS,2VEU,2VEV,2VEW,2VEX,2VEY,2ZMM,2ZN7,3A5J,3CWE,3D9C,3EAX,
3EB1,3EU0,3I7Z,3I80,3SME,4BJO,4I8N,4QBW,4Y14,5K9V,5K9W,5KA0,5KA1,5T19,6B90,6NTP,6W30,7KEY,7KLX,7LFO,7MN9,7MNA,8DU7,8G65,8G67,8G68,8G69,8G6A,8SKL

> <UniProt (SwissProt) Recommended Name of Target Chain>
Tyrosine-protein phosphatase non-receptor type 1

> <UniProt (SwissProt) Entry Name of Target Chain>
PTN1_HUMAN

> <UniProt (SwissProt) Primary ID of Target Chain>
P18031

> <UniProt (SwissProt) Secondary ID(s) of Target Chain>
Q5TGD8 Q9BQV9 Q9NQQ4

$$$$
Molecule
  SciTegic10242319433D

 81 85  0  0  0  0            999 V2000
    0.7124  -15.1451    0.0144 C   0  0
    2.1601  -14.8192   -0.0258 C   0  0
    2.5539  -13.5418   -0.0022 C   0  0
    1.5676  -12.4717    0.1569 C   0  0
    0.2706  -12.7619    0.2174 C   0  0
   -0.1738  -14.1550    0.1638 C   0  0
   -6.5965  -23.4482    0.2015 C   0  0
   -6.6833  -24.9049    0.2198 C   0  0
   -5.5679  -25.6245    0.2089 C   0  0
   -4.2376  -24.9841    0.1459 C   0  0
   -4.1526  -23.6590    0.0920 C   0  0
   -5.3994  -22.8528    0.1637 C   0  0
   -2.8953  -26.1043   -0.2217 S   0  0
   -1.1080  -26.0617   -0.1456 N   0  0
   -2.9298  -25.7801   -1.6947 O   0  0
   -3.3860  -27.5326   -0.0917 O   0  0
   -0.0848  -25.1972    0.4922 C   0  0  3  0  0  0
    1.2298  -25.8917   -0.1928 C   0  0
    2.6923  -25.3957   -0.0471 C   0  0
   -0.2284  -23.6845    0.2357 C   0  0
    3.8220  -26.2985   -0.3982 C   0  0
    5.0863  -25.8511   -0.3761 C   0  0
    5.3415  -24.4085   -0.0067 C   0  0
    4.3062  -23.6414    0.2969 C   0  0
    2.9659  -24.1472    0.2802 C   0  0
    6.7008  -23.7087   -0.0302 C   0  0  2  0  0  0
    7.8395  -24.2188    0.8153 C   0  0
    8.8038  -23.2259    0.3101 C   0  0
    8.1957  -22.0844   -0.2895 N   0  0
    6.5149  -21.8771    0.0623 S   0  0
   10.0128  -23.4663    0.2151 O   0  0
    5.6377  -21.4923   -1.1025 O   0  0
    7.2155  -20.6152    0.5403 O   0  0
    0.6509  -22.8505    0.6260 N   0  0
   -1.3214  -23.0016   -0.3180 N   0  0
   -0.9561  -21.6471   -0.1967 C   0  0
    0.2406  -21.5605    0.3554 C   0  0
   -1.7581  -20.4389   -0.6032 C   0  0
   -1.0613  -19.1614   -0.0133 C   0  0
   -7.8815  -25.5231    0.2450 F   0  0
   -1.7536  -17.8887   -0.5401 C   0  0
   -1.1667  -16.5846    0.0839 C   0  0
    0.2704  -16.4955   -0.0666 O   0  0
    6.1985  -26.8001   -0.7632 C   0  0
    3.1571  -15.8977   -0.1720 C   0  0
    2.7507  -17.2257   -0.2008 O   0  0
    4.3637  -15.6311   -0.2168 O   0  0
    3.9073  -13.2149   -0.0470 O   0  0
    1.8966  -11.4348    0.2259 H   0  0
   -0.4625  -11.9602    0.3071 H   0  0
   -1.2355  -14.3875    0.2463 H   0  0
   -7.5054  -22.8467    0.2187 H   0  0
   -5.6347  -26.7118    0.2473 H   0  0
   -3.1829  -23.1705   -0.0035 H   0  0
   -5.3374  -21.7648    0.1858 H   0  0
   -0.8341  -26.0192   -1.1791 H   0  0
   -0.0734  -25.3825    1.5662 H   0  0
    1.2365  -26.9182    0.1735 H   0  0
    1.0308  -25.8891   -1.2645 H   0  0
    3.6202  -27.3330   -0.6759 H   0  0
    4.4777  -22.5992    0.5661 H   0  0
    2.1465  -23.4795    0.5462 H   0  0
    7.0508  -23.8744   -1.0491 H   0  0
    7.6524  -24.1280    1.8852 H   0  0
    8.1201  -25.2457    0.5809 H   0  0
    8.7396  -21.4051   -0.9120 H   0  0
   -2.2182  -23.4118   -0.7332 H   0  0
    0.7976  -20.6458    0.5585 H   0  0
   -1.7942  -20.3697   -1.6904 H   0  0
   -2.7714  -20.5203   -0.2099 H   0  0
   -1.1286  -19.1841    1.0744 H   0  0
   -0.0134  -19.1518   -0.3130 H   0  0
   -1.6277  -17.8453   -1.6219 H   0  0
   -2.8152  -17.9438   -0.2992 H   0  0
   -1.6234  -15.7258   -0.4080 H   0  0
   -1.4085  -16.5663    1.1466 H   0  0
    7.1568  -26.2854   -0.6933 H   0  0
    6.0446  -27.1430   -1.7864 H   0  0
    6.1968  -27.6568   -0.0893 H   0  0
    3.0824  -17.6745   -1.0902 H   0  0
    4.0859  -12.5716   -0.8575 H   0  0
 23 24  2  0
 12  7  2  0
 24 25  1  0
 25 19  2  0
 26 27  1  0
  6  1  2  0
 10 13  1  0
  1  2  1  0
 13 14  1  0
  3  4  1  0
 27 28  1  0
 28 29  1  0
 29 30  1  0
 30 26  1  0
 26 23  1  0
 13 15  2  0
 28 31  2  0
  7  8  1  0
 30 32  2  0
 13 16  2  0
 30 33  2  0
 20 34  2  0
 17 14  1  0
 34 37  1  0
 36 35  1  0
 35 20  1  0
  8  9  2  0
 17 18  1  0
 36 37  2  0
  4  5  2  0
 36 38  1  0
 18 19  1  0
 38 39  1  0
  9 10  1  0
  8 40  1  0
 17 20  1  0
 39 41  1  0
  2  3  2  0
 41 42  1  0
 19 21  1  0
 42 43  1  0
 43  1  1  0
 10 11  2  0
 22 44  1  0
 21 22  2  0
  5  6  1  0
 22 23  1  0
 45 46  1  0
 45 47  2  0
  2 45  1  0
 11 12  1  0
  3 48  1  0
  4 49  1  0
  5 50  1  0
  6 51  1  0
  7 52  1  0
  9 53  1  0
 11 54  1  0
 12 55  1  0
 14 56  1  0
 17 57  1  0
 18 58  1  0
 18 59  1  0
 21 60  1  0
 24 61  1  0
 25 62  1  0
 26 63  1  0
 27 64  1  0
 27 65  1  0
 29 66  1  0
 35 67  1  0
 37 68  1  0
 38 69  1  0
 38 70  1  0
 39 71  1  0
 39 72  1  0
 41 73  1  0
 41 74  1  0
 42 75  1  0
 42 76  1  0
 44 77  1  0
 44 78  1  0
 44 79  1  0
 46 80  1  0
 48 81  1  0
M  END
> <Name>
Molecule

> <Clean Energy>
189.631

> <From>
www.bindingDB.org

> <BindingDB Reactant_set_id>
50406939

> <Ligand InChI>
InChI=1S/C32H33FN4O9S2/c1-19-14-20(11-12-24(19)28-17-29(39)37-48(28,44)45)15-25(36-47(42,43)23-8-4-6-21(33)16-23)31-34-18-22(35-31)7-2-3-13-46-27-10-5-9-26(38)30(27)32(40)41/h4-6,8-12,14,16,18,25,28,3
6,38H,2-3,7,13,15,17H2,1H3,(H,34,35)(H,37,39)(H,40,41)

> <Ligand InChI Key>
LGGCTIPSFMQVAC-UHFFFAOYSA-N

> <BindingDB MonomerID>
50228008

> <BindingDB Ligand Name>
2-[4-(2-{1-(3-fluoro-benzenesulfonylamino)-2-[3-methyl-4-(1,1,3-trioxo-1lambda6-isothiazolidin-5-yl)-phenyl]-ethyl}-3H-imidazol-4-yl)-butoxy]-6-hydroxy-benzoic acid::CHEMBL402032

> <Target Name>
Tyrosine-protein phosphatase non-receptor type 1

> <Target Source Organism According to Curator or DataSource>
Homo sapiens

> <IC50 (nM)>
32

> <Curation/DataSource>
ChEMBL

> <Article DOI>
10.1016/j.bmcl.2007.11.012

> <BindingDB Entry DOI>
10.7270/Q2BV7GCQ

> <PMID>
18037290

> <Authors>
Douty, B; Wayland, B; Ala, PJ; Bower, MJ; Pruitt, J; Bostrom, L; Wei, M; Klabe, R; Gonneville, L; Wynn, R; Burn, TC; Liu, PC; Combs, AP; Yue, EW

> <Institution>
Incyte Corporation

> <Link to Ligand in BindingDB>
http://www.bindingdb.org/bind/chemsearch/marvin/MolStructure.jsp?monomerid=50228008

> <Link to Ligand-Target Pair in BindingDB>
http://www.bindingdb.org/jsp/dbsearch/PrimarySearch_ki.jsp?energyterm=kJ/mole&tag=pol&polymerid=2622&target=Tyrosine-protein+phosphatase+non-receptor+type+1&column=ki&startPg=0&Increment=50&submit=Sea
rch
http://www.bindingdb.org/jsp/dbsearch/PrimarySearch_ki.jsp?energyterm=kJ/mole&tag=r21&monomerid=50228008&enzyme=Tyrosine-protein+phosphatase+non-receptor+type+1&column=ki&startPg=0&Increment=50&submit
=Search

> <PubChem CID of Ligand>
24936165

> <PubChem SID of Ligand>
104097695

> <ChEMBL ID of Ligand>
CHEMBL402032

> <ZINC ID of Ligand>
ZINC28978229

> <Number of Protein Chains in Target (bigger than 1 implies a multichain complex)>
1

> <BindingDB Target Chain Sequence>
MEMEKEFEQIDKSGSWAAIYQDIRHEASDFPCRVAKLPKNKNRNRYRDVSPFDHSRIKLHQEDNDYINASLIKMEEAQRSYILTQGPLPNTCGHFWEMVWEQKSRGVVMLNRVMEKGSLKCAQYWPQKEEKEMIFEDTNLKLTLISEDIKSYYTVRQLELENLTTQETREILHFHYTTWPDFGVPESPASFLNFLFKVRE
SGSLSPEHGPVVVHCSAGIGRSGTFCLADTCLLLMDKRKDPSSVDIKKVLLEMRKFRMGLIQTADQLRFSYLAVIEGAKFIMGDSSVQDQWKELSHEDLEPPPEHIPPPPRPPKRILEPHNGKCREFFPNHQWVKEETQEDKDCPIKEEKGSPLNAAPYGIESMSQDTEVRSRVVGGSLRGAQAASPAKGEPSLPEKDED
HALSYWKPFLVNMCVATVLTAGAYLCYRFLFNSNT

> <PDB ID(s) of Target Chain>
1BZJ,1G7G,1GFY,1JF7,1KAK,1KAV,1LQF,1NL9,1NNY,1NO6,1NZ7,1OEM,1OEO,1OES,1OET,1OEU,1OEV,1ONY,1ONZ,1PH0,1PXH,1PYN,1Q1M,1Q6J,1Q6M,1Q6N,1Q6P,1Q6S,1Q6T,1QXK,1SUG,1T48,1T49,1T4J,1WAX,1XBO,2AZR,2B07,2BGD,2BGE,
2CM2,2CM3,2CM7,2CM8,2CMA,2CMB,2CMC,2CNE,2CNF,2CNG,2CNH,2CNI,2F6T,2F6V,2F6W,2F6Y,2F6Z,2F70,2F71,2FJN,2H4G,2H4K,2HB1,2HNP,2HNQ,2QBP,2QBQ,2QBR,2QBS,2VEU,2VEV,2VEW,2VEX,2VEY,2ZMM,2ZN7,3A5J,3CWE,3D9C,3EAX,
3EB1,3EU0,3I7Z,3I80,3SME,4BJO,4I8N,4QBW,4Y14,5K9V,5K9W,5KA0,5KA1,5T19,6B90,6NTP,6W30,7KEY,7KLX,7LFO,7MN9,7MNA,8DU7,8G65,8G67,8G68,8G69,8G6A,8SKL

> <UniProt (SwissProt) Recommended Name of Target Chain>
Tyrosine-protein phosphatase non-receptor type 1

> <UniProt (SwissProt) Entry Name of Target Chain>
PTN1_HUMAN

> <UniProt (SwissProt) Primary ID of Target Chain>
P18031

> <UniProt (SwissProt) Secondary ID(s) of Target Chain>
Q5TGD8 Q9BQV9 Q9NQQ4

$$$$
Molecule
  SciTegic10242319433D

 64 68  0  0  0  0            999 V2000
   -0.9910   -2.8371   -0.4290 C   0  0
   -0.5445   -4.3743   -0.1955 N   0  0
    0.7004   -4.7889    0.3612 N   0  0
   -2.3112   -3.2158    0.2150 C   0  0
    5.6621    1.5042    0.0082 P   0  0
   -5.5308    3.1465   -0.0679 P   0  0
   -3.8800    3.3708   -0.2423 C   0  0
    4.0497    1.9200   -0.1230 C   0  0
    0.7955   -6.0084    0.4697 N   0  0
   -3.4395   -3.1274   -0.3492 N   0  0
   -4.3552   -3.5651    0.5353 N   0  0
   -3.8082   -3.9030    1.5756 N   0  0
   -1.2303   -5.6233   -0.4458 C   0  0
   -2.4885   -3.7120    1.4687 N   0  0
   -0.3632   -6.6048    0.0069 C   0  0
   -0.9862   -1.6920    0.6887 C   0  0
    0.5469   -2.7654   -0.0149 C   0  0
    3.1622    0.7072   -0.1824 C   0  0
   -3.1419    2.0659   -0.0248 C   0  0
    5.8926    0.7538    1.1451 O   0  0
   -5.7988    2.6983    1.2097 O   0  0
   -3.4316    4.3205    0.6530 F   0  0
    3.7311    2.6223    1.0219 F   0  0
   -3.6773    3.7959   -1.5379 F   0  0
    3.8263    2.7126   -1.2258 F   0  0
    6.5053    2.7996    0.0943 O   0  0
    6.0847    0.6940   -1.2410 O   0  0
   -6.0649    2.1151   -1.0984 O   0  0
   -6.2552    4.4964   -0.2997 O   0  0
   -2.0986    1.9766    0.9994 C   0  0
    2.0570    0.6429   -1.1552 C   0  0
   -3.4332    0.9943   -0.7573 C   0  0
    3.3546   -0.2913    0.6701 C   0  0
    1.4494   -1.5108   -0.1724 C   0  0
   -1.7913   -0.3725    0.4085 C   0  0
   -1.4635    0.8226    1.2089 C   0  0
    1.2382   -0.4103   -1.1661 C   0  0
    2.4776   -1.4327    0.6705 C   0  0
   -2.7262   -0.2661   -0.5418 C   0  0
   -2.4227   -5.9425   -0.9706 C   0  0
   -0.6396   -7.8995   -0.0184 C   0  0
   -2.7899   -7.3752   -1.0227 C   0  0
   -1.9429   -8.3055   -0.5631 C   0  0
   -1.7383   -3.9065    2.2064 H   0  0
   -1.3921   -2.1298    1.6005 H   0  0
    0.0529   -1.4067    0.8533 H   0  0
    0.5751   -3.0135    1.0461 H   0  0
    1.0396   -3.5524   -0.5858 H   0  0
    6.3553    3.3736   -0.7721 H   0  0
    5.5017   -0.1768   -1.3076 H   0  0
   -5.8735    2.4606   -2.0714 H   0  0
   -5.9190    5.1998    0.4037 H   0  0
   -1.8407    2.8548    1.5913 H   0  0
    1.9086    1.4560   -1.8659 H   0  0
   -4.2052    1.0570   -1.5242 H   0  0
    4.1838   -0.2468    1.3761 H   0  0
   -0.6947    0.7619    1.9791 H   0  0
    0.4251   -0.4692   -1.8896 H   0  0
    2.6580   -2.2468    1.3725 H   0  0
   -2.9635   -1.1298   -1.1629 H   0  0
   -3.0979   -5.1734   -1.3456 H   0  0
    0.0731   -8.6369    0.3510 H   0  0
   -3.7529   -7.6743   -1.4366 H   0  0
   -2.2192   -9.3595   -0.5930 H   0  0
  2  1  1  0
  3  2  1  0
  4  1  1  0
  5  8  1  0
  6  7  1  0
  7 19  1  0
  8 18  1  0
  9  3  2  0
 10  4  2  0
 11 10  1  0
 12 14  1  0
 13  2  1  0
 14  4  1  0
 15 13  1  0
 16  1  1  0
 17  1  1  0
 18 33  2  0
 19 32  2  0
 20  5  2  0
 21  6  2  0
 22  7  1  0
 23  8  1  0
 24  7  1  0
 25  8  1  0
 26  5  1  0
 27  5  1  0
 28  6  1  0
 29  6  1  0
 30 36  2  0
 31 37  2  0
 32 39  1  0
 33 38  1  0
 34 17  1  0
 35 16  1  0
 36 35  1  0
 37 34  1  0
 38 34  2  0
 39 35  2  0
 40 13  2  0
 41 15  2  0
 42 40  1  0
 43 42  2  0
 12 11  2  0
  9 15  1  0
 31 18  1  0
 19 30  1  0
 41 43  1  0
 14 44  1  0
 16 45  1  0
 16 46  1  0
 17 47  1  0
 17 48  1  0
 26 49  1  0
 27 50  1  0
 28 51  1  0
 29 52  1  0
 30 53  1  0
 31 54  1  0
 32 55  1  0
 33 56  1  0
 36 57  1  0
 37 58  1  0
 38 59  1  0
 39 60  1  0
 40 61  1  0
 41 62  1  0
 42 63  1  0
 43 64  1  0
M  END
> <Name>
Molecule

> <Clean Energy>
204.722

> <From>
www.bindingDB.org

> <BindingDB Reactant_set_id>
50261756

> <Ligand InChI>
InChI=1S/C24H21F4N7O6P2/c25-23(26,42(36,37)38)17-9-5-15(6-10-17)13-22(21-30-32-33-31-21,35-20-4-2-1-3-19(20)29-34-35)14-16-7-11-18(12-8-16)24(27,28)43(39,40)41/h1-12H,13-14H2,(H2,36,37,38)(H2,39,40,41
)(H,30,31,32,33)

> <Ligand InChI Key>
NFYJBAFWWYMJRQ-UHFFFAOYSA-N

> <BindingDB MonomerID>
50142324

> <BindingDB Ligand Name>
({4-[2-Benzotriazol-1-yl-3-[4-(difluoro-phosphono-methyl)-phenyl]-2-(1H-tetrazol-5-yl)-propyl]-phenyl}-difluoro-methyl)-phosphonic acid::CHEMBL418703

> <Target Name>
Tyrosine-protein phosphatase non-receptor type 1

> <Target Source Organism According to Curator or DataSource>
Homo sapiens

> <IC50 (nM)>
32

> <Curation/DataSource>
ChEMBL

> <Article DOI>
10.1016/j.bmcl.2003.11.076

> <BindingDB Entry DOI>
10.7270/Q24M9404

> <PMID>
15013020

> <Authors>
Lau, CK; Bayly, CI; Gauthier, JY; Li, CS; Therien, M; Asante-Appiah, E; Cromlish, W; Boie, Y; Forghani, F; Desmarais, S; Wang, Q; Skorey, K; Waddleton, D; Payette, P; Ramachandran, C; Kennedy, BP; Sca
pin, G

> <Institution>
Merck Frosst Centre for Therapeutic Research

> <Link to Ligand in BindingDB>
http://www.bindingdb.org/bind/chemsearch/marvin/MolStructure.jsp?monomerid=50142324

> <Link to Ligand-Target Pair in BindingDB>
http://www.bindingdb.org/jsp/dbsearch/PrimarySearch_ki.jsp?energyterm=kJ/mole&tag=pol&polymerid=2622&target=Tyrosine-protein+phosphatase+non-receptor+type+1&column=ki&startPg=0&Increment=50&submit=Sea
rch
http://www.bindingdb.org/jsp/dbsearch/PrimarySearch_ki.jsp?energyterm=kJ/mole&tag=r21&monomerid=50142324&enzyme=Tyrosine-protein+phosphatase+non-receptor+type+1&column=ki&startPg=0&Increment=50&submit
=Search

> <PubChem CID of Ligand>
44265670

> <PubChem SID of Ligand>
104031715

> <ChEMBL ID of Ligand>
CHEMBL418703

> <ZINC ID of Ligand>
ZINC25989450

> <Number of Protein Chains in Target (bigger than 1 implies a multichain complex)>
1

> <BindingDB Target Chain Sequence>
MEMEKEFEQIDKSGSWAAIYQDIRHEASDFPCRVAKLPKNKNRNRYRDVSPFDHSRIKLHQEDNDYINASLIKMEEAQRSYILTQGPLPNTCGHFWEMVWEQKSRGVVMLNRVMEKGSLKCAQYWPQKEEKEMIFEDTNLKLTLISEDIKSYYTVRQLELENLTTQETREILHFHYTTWPDFGVPESPASFLNFLFKVRE
SGSLSPEHGPVVVHCSAGIGRSGTFCLADTCLLLMDKRKDPSSVDIKKVLLEMRKFRMGLIQTADQLRFSYLAVIEGAKFIMGDSSVQDQWKELSHEDLEPPPEHIPPPPRPPKRILEPHNGKCREFFPNHQWVKEETQEDKDCPIKEEKGSPLNAAPYGIESMSQDTEVRSRVVGGSLRGAQAASPAKGEPSLPEKDED
HALSYWKPFLVNMCVATVLTAGAYLCYRFLFNSNT

> <PDB ID(s) of Target Chain>
1BZJ,1G7G,1GFY,1JF7,1KAK,1KAV,1LQF,1NL9,1NNY,1NO6,1NZ7,1OEM,1OEO,1OES,1OET,1OEU,1OEV,1ONY,1ONZ,1PH0,1PXH,1PYN,1Q1M,1Q6J,1Q6M,1Q6N,1Q6P,1Q6S,1Q6T,1QXK,1SUG,1T48,1T49,1T4J,1WAX,1XBO,2AZR,2B07,2BGD,2BGE,
2CM2,2CM3,2CM7,2CM8,2CMA,2CMB,2CMC,2CNE,2CNF,2CNG,2CNH,2CNI,2F6T,2F6V,2F6W,2F6Y,2F6Z,2F70,2F71,2FJN,2H4G,2H4K,2HB1,2HNP,2HNQ,2QBP,2QBQ,2QBR,2QBS,2VEU,2VEV,2VEW,2VEX,2VEY,2ZMM,2ZN7,3A5J,3CWE,3D9C,3EAX,
3EB1,3EU0,3I7Z,3I80,3SME,4BJO,4I8N,4QBW,4Y14,5K9V,5K9W,5KA0,5KA1,5T19,6B90,6NTP,6W30,7KEY,7KLX,7LFO,7MN9,7MNA,8DU7,8G65,8G67,8G68,8G69,8G6A,8SKL

> <UniProt (SwissProt) Recommended Name of Target Chain>
Tyrosine-protein phosphatase non-receptor type 1

> <UniProt (SwissProt) Entry Name of Target Chain>
PTN1_HUMAN

> <UniProt (SwissProt) Primary ID of Target Chain>
P18031

> <UniProt (SwissProt) Secondary ID(s) of Target Chain>
Q5TGD8 Q9BQV9 Q9NQQ4

$$$$
Molecule
  SciTegic10242319433D

 56 60  0  0  0  0            999 V2000
   -1.8625    0.5475   -0.2203 C   0  0
   -1.7404   -0.6215   -0.8526 C   0  0
   -0.5560   -1.4623   -0.6354 C   0  0
    0.4007   -1.0483    0.1933 C   0  0
    0.2601    0.2106    0.8942 C   0  0
   -0.8159    0.9610    0.7086 C   0  0
   -3.1004    1.4017   -0.5062 C   0  0
    1.6394   -1.8441    0.4197 C   0  0  1  0  0  0
   -3.3205    2.7786    0.2675 C   0  0  2  0  0  0
   -4.6841    3.3746   -0.0125 N   0  0
   -2.2059    3.8246    0.0179 C   0  0
   -0.9721    3.5083   -0.1775 N   0  0
   -2.3718    5.2538    0.0753 N   0  0
   -1.0828    5.7460   -0.0905 C   0  0
   -0.2442    4.6643   -0.2492 C   0  0
    1.0741    4.7838   -0.4031 C   0  0
    1.6288    6.1489   -0.4174 C   0  0
    0.8133    7.2043   -0.2715 C   0  0
   -0.6500    6.9964   -0.0900 C   0  0
    1.5590   -3.5837    0.1240 S   0  0
    3.2205   -3.7800    0.2467 N   0  5
    3.8110   -2.5525   -0.1709 C   0  0
    2.7940   -1.4497   -0.5228 C   0  0
    1.1115   -3.8930   -1.2922 O   0  0
    0.7198   -4.3129    1.1554 O   0  0
    5.0331   -2.3837   -0.2464 O   0  0
   -6.0025    2.4061    0.7352 S   0  0
   -7.6787    1.9798    0.2988 C   0  0
   -5.7949    1.2866   -0.2560 O   0  0
   -6.6923    3.7498    0.5647 O   0  0
   -8.6367    2.8967    0.1809 C   0  0
  -10.0001    2.4870   -0.1768 C   0  0
  -10.2806    1.2001   -0.3819 C   0  0
   -9.2303    0.1929   -0.2534 C   0  0
   -7.9938    0.5630    0.0701 C   0  0
   -2.5237   -0.9539   -1.5338 H   0  0
   -0.4606   -2.4189   -1.1491 H   0  0
    1.0423    0.5423    1.5770 H   0  0
   -0.9205    1.8978    1.2560 H   0  0
   -3.9682    0.7785   -0.2905 H   0  0
   -3.0785    1.6395   -1.5697 H   0  0
    1.9661   -1.6855    1.4474 H   0  0
   -3.2955    2.5450    1.3319 H   0  0
   -4.8366    3.4081   -1.0711 H   0  0
   -3.2767    5.8077    0.2134 H   0  0
    1.7148    3.9089   -0.5136 H   0  0
    2.7004    6.3011   -0.5465 H   0  0
    1.2223    8.2146   -0.2857 H   0  0
   -1.3334    7.8360    0.0373 H   0  0
    3.1800   -0.4558   -0.2964 H   0  0
    2.4949   -1.4940   -1.5701 H   0  0
   -8.4092    3.9492    0.3495 H   0  0
  -10.7851    3.2369   -0.2749 H   0  0
  -11.2944    0.8991   -0.6458 H   0  0
   -9.4590   -0.8594   -0.4220 H   0  0
   -7.2105   -0.1889    0.1659 H   0  0
 16 17  1  0
  8  4  1  0
 17 18  2  0
  3  4  2  0
 18 19  1  0
 19 14  2  0
  8 20  1  0
  9  7  1  0
  1  2  2  0
  9 10  1  0
  4  5  1  0
 20 21  1  0
 21 22  1  0
 22 23  1  0
  8 23  1  0
  9 11  1  0
 20 24  2  0
 11 12  2  0
 20 25  2  0
 22 26  2  0
  5  6  2  0
 10 27  1  0
 12 15  1  0
 27 28  1  0
 14 13  1  0
 27 29  2  0
 13 11  1  0
 27 30  2  0
  6  1  1  0
 28 31  2  0
  2  3  1  0
 31 32  1  0
 14 15  1  0
 32 33  2  0
  1  7  1  0
 33 34  1  0
 15 16  2  0
 34 35  2  0
 35 28  1  0
  2 36  1  0
  3 37  1  0
  5 38  1  0
  6 39  1  0
  7 40  1  0
  7 41  1  0
  8 42  1  0
  9 43  1  0
 10 44  1  0
 13 45  1  0
 16 46  1  0
 17 47  1  0
 18 48  1  0
 19 49  1  0
 23 50  1  0
 23 51  1  0
 31 52  1  0
 32 53  1  0
 33 54  1  0
 34 55  1  0
 35 56  1  0
M  CHG  1  21  -1
M  END
> <Name>
Molecule

> <Clean Energy>
162.865

> <From>
www.bindingDB.org

> <BindingDB Reactant_set_id>
50350917

> <Ligand InChI>
InChI=1S/C24H22N4O5S2/c29-23-15-22(35(32,33)28-23)17-12-10-16(11-13-17)14-21(24-25-19-8-4-5-9-20(19)26-24)27-34(30,31)18-6-2-1-3-7-18/h1-13,21-22,27H,14-15H2,(H2,25,26,28,29)/p-1/t21-,22-/m0/s1

> <Ligand InChI Key>
RASDRJUDLUJJHJ-VXKWHMMOSA-M

> <BindingDB MonomerID>
50189642

> <BindingDB Ligand Name>
CHEMBL210836::N-(1S)-1-(1H-benzimidazol-2yl)-2-4-[(5S)-1,1-dioxo-3-oxoisothiazolidin-5-yl]phenylethyl)benzenesulfonamide

> <Target Name>
Tyrosine-protein phosphatase non-receptor type 1

> <Target Source Organism According to Curator or DataSource>
Homo sapiens

> <IC50 (nM)>
32

> <Curation/DataSource>
ChEMBL

> <Article DOI>
10.1021/jm0600904

> <BindingDB Entry DOI>
10.7270/Q2JQ10M8

> <PMID>
16789735

> <Authors>
Combs, AP; Zhu, W; Crawley, ML; Glass, B; Polam, P; Sparks, RB; Modi, D; Takvorian, A; McLaughlin, E; Yue, EW; Wasserman, Z; Bower, M; Wei, M; Rupar, M; Ala, PJ; Reid, BM; Ellis, D; Gonneville, L; Emm
, T; Taylor, N; Yeleswaram, S; Li, Y; Wynn, R; Burn, TC; Hollis, G; Liu, PC; Metcalf, B

> <Institution>
Incyte Corporation

> <Link to Ligand in BindingDB>
http://www.bindingdb.org/bind/chemsearch/marvin/MolStructure.jsp?monomerid=50189642

> <Link to Ligand-Target Pair in BindingDB>
http://www.bindingdb.org/jsp/dbsearch/PrimarySearch_ki.jsp?energyterm=kJ/mole&tag=pol&polymerid=2622&target=Tyrosine-protein+phosphatase+non-receptor+type+1&column=ki&startPg=0&Increment=50&submit=Sea
rch
http://www.bindingdb.org/jsp/dbsearch/PrimarySearch_ki.jsp?energyterm=kJ/mole&tag=r21&monomerid=50189642&enzyme=Tyrosine-protein+phosphatase+non-receptor+type+1&column=ki&startPg=0&Increment=50&submit
=Search

> <PubChem CID of Ligand>
91936143

> <PubChem SID of Ligand>
104073163

> <ChEMBL ID of Ligand>
CHEMBL210836

> <ZINC ID of Ligand>
ZINC14952987

> <Number of Protein Chains in Target (bigger than 1 implies a multichain complex)>
1

> <BindingDB Target Chain Sequence>
MEMEKEFEQIDKSGSWAAIYQDIRHEASDFPCRVAKLPKNKNRNRYRDVSPFDHSRIKLHQEDNDYINASLIKMEEAQRSYILTQGPLPNTCGHFWEMVWEQKSRGVVMLNRVMEKGSLKCAQYWPQKEEKEMIFEDTNLKLTLISEDIKSYYTVRQLELENLTTQETREILHFHYTTWPDFGVPESPASFLNFLFKVRE
SGSLSPEHGPVVVHCSAGIGRSGTFCLADTCLLLMDKRKDPSSVDIKKVLLEMRKFRMGLIQTADQLRFSYLAVIEGAKFIMGDSSVQDQWKELSHEDLEPPPEHIPPPPRPPKRILEPHNGKCREFFPNHQWVKEETQEDKDCPIKEEKGSPLNAAPYGIESMSQDTEVRSRVVGGSLRGAQAASPAKGEPSLPEKDED
HALSYWKPFLVNMCVATVLTAGAYLCYRFLFNSNT

> <PDB ID(s) of Target Chain>
1BZJ,1G7G,1GFY,1JF7,1KAK,1KAV,1LQF,1NL9,1NNY,1NO6,1NZ7,1OEM,1OEO,1OES,1OET,1OEU,1OEV,1ONY,1ONZ,1PH0,1PXH,1PYN,1Q1M,1Q6J,1Q6M,1Q6N,1Q6P,1Q6S,1Q6T,1QXK,1SUG,1T48,1T49,1T4J,1WAX,1XBO,2AZR,2B07,2BGD,2BGE,
2CM2,2CM3,2CM7,2CM8,2CMA,2CMB,2CMC,2CNE,2CNF,2CNG,2CNH,2CNI,2F6T,2F6V,2F6W,2F6Y,2F6Z,2F70,2F71,2FJN,2H4G,2H4K,2HB1,2HNP,2HNQ,2QBP,2QBQ,2QBR,2QBS,2VEU,2VEV,2VEW,2VEX,2VEY,2ZMM,2ZN7,3A5J,3CWE,3D9C,3EAX,
3EB1,3EU0,3I7Z,3I80,3SME,4BJO,4I8N,4QBW,4Y14,5K9V,5K9W,5KA0,5KA1,5T19,6B90,6NTP,6W30,7KEY,7KLX,7LFO,7MN9,7MNA,8DU7,8G65,8G67,8G68,8G69,8G6A,8SKL

> <UniProt (SwissProt) Recommended Name of Target Chain>
Tyrosine-protein phosphatase non-receptor type 1

> <UniProt (SwissProt) Entry Name of Target Chain>
PTN1_HUMAN

> <UniProt (SwissProt) Primary ID of Target Chain>
P18031

> <UniProt (SwissProt) Secondary ID(s) of Target Chain>
Q5TGD8 Q9BQV9 Q9NQQ4

$$$$
Molecule
  SciTegic10242319433D

 72 77  0  0  0  0            999 V2000
   11.0411   -2.7549   -0.8324 S   0  0
   -0.8735   -5.7471   -0.0095 C   0  0
   -0.0380   -4.6399   -0.0070 C   0  0
   10.1315   -3.9178    0.1256 O   0  0
   -2.2140   -5.3248   -0.0347 O   0  0
   13.5237    0.9635    0.2607 C   0  0
    8.6616   -3.8846    0.2185 C   0  0
   11.9151   -1.3051   -0.1948 C   0  0
   -0.9577   -3.4991   -0.0231 C   0  0
   12.0767    1.1172    0.0353 C   0  0
   -2.2536   -3.9784   -0.0355 C   0  0
   14.3898    2.1433    0.4286 C   0  0
   11.3135    0.0409   -0.1805 C   0  0
    5.8293   -4.2080    0.2283 C   0  0
    8.0947   -5.0684    0.4961 C   0  0
    7.7372   -2.7132   -0.0390 C   0  0
    6.6240   -5.2390    0.4914 C   0  0
    6.4160   -2.8963   -0.0162 C   0  0
   14.0622   -0.2534    0.2757 C   0  0
   10.2094   -2.3514   -2.0328 O   0  0
   12.1834   -3.6014   -1.3570 O   0  0
    1.5159   -4.5958    0.0340 C   0  0
   -0.4466   -7.2198    0.0020 C   0  0
    4.3529   -4.3612    0.1672 C   0  0
   13.2265   -1.4296    0.0130 C   0  0
   13.9131    3.2825    0.3697 O   0  0
    2.1331   -3.3990   -0.0466 C   0  0
    2.3853   -5.7890    0.1834 C   0  0
    3.7151   -5.6832    0.2558 C   0  0
    3.5912   -3.2859    0.0121 C   0  0
   11.5022    2.3852    0.0383 O   0  0
   15.7679    1.9782    0.5500 O   0  0
   -1.5872   -8.2545    0.0007 C   0  0
   -0.7024   -2.1760   -0.0200 C   0  0
   -3.3225   -3.2066   -0.0396 C   0  0
    8.2110   -1.3187   -0.2383 C   0  0
    8.9694   -6.2683    0.7231 C   0  0
   -2.8732   -7.9040   -0.0011 C   0  0
   -1.2389   -9.6807    0.0032 C   0  0
   -1.8600   -1.2592   -0.0291 C   0  0
   -3.1075   -1.7453   -0.0373 C   0  0
   -2.1956  -10.6088    0.0039 C   0  0
   -3.9267   -8.9214   -0.0007 C   0  0
   -3.6035  -10.2122    0.0020 C   0  0
   10.2427    0.1589   -0.3466 H   0  0
    6.1911   -6.2162    0.7052 H   0  0
    5.7585   -2.0433   -0.1845 H   0  0
   15.1251   -0.3760    0.4833 H   0  0
    0.1644   -7.3965   -0.8832 H   0  0
    0.1529   -7.3859    0.8970 H   0  0
   13.6835   -2.4189   -0.0127 H   0  0
    1.5326   -2.4961   -0.1579 H   0  0
    1.9274   -6.7768    0.2355 H   0  0
    4.3271   -6.5765    0.3806 H   0  0
    4.0579   -2.3046   -0.0728 H   0  0
   11.0582    2.5710   -0.8949 H   0  0
   15.9772    1.3858    1.3913 H   0  0
    0.3195   -1.7969   -0.0110 H   0  0
   -4.3266   -3.6307   -0.0445 H   0  0
    7.3556   -0.6641   -0.4052 H   0  0
    8.8724   -1.2793   -1.1038 H   0  0
    8.7530   -0.9884    0.6479 H   0  0
    8.3468   -7.1376    0.9347 H   0  0
    9.6311   -6.0814    1.5689 H   0  0
    9.5658   -6.4578   -0.1694 H   0  0
   -3.1438   -6.8481   -0.0028 H   0  0
   -0.1915   -9.9824    0.0046 H   0  0
   -1.6980   -0.1813   -0.0293 H   0  0
   -3.9600   -1.0662   -0.0421 H   0  0
   -1.9281  -11.6654    0.0059 H   0  0
   -4.9746   -8.6214   -0.0026 H   0  0
   -4.3854  -10.9716    0.0027 H   0  0
  2  3  2  0
  3 22  1  0
  4  1  1  0
  5  2  1  0
  6 19  2  0
  7  4  1  0
  8  1  1  0
  9  3  1  0
 10 13  2  0
 11  9  1  0
 12  6  1  0
 13  8  1  0
 14 18  1  0
 15  7  2  0
 16  7  1  0
 17 15  1  0
 18 16  2  0
 19 25  1  0
 20  1  2  0
 21  1  2  0
 22 27  2  0
 23  2  1  0
 24 14  1  0
 25  8  2  0
 26 12  2  0
 27 30  1  0
 28 29  2  0
 29 24  1  0
 30 24  2  0
 31 10  1  0
 32 12  1  0
 33 23  1  0
 34  9  2  0
 35 11  2  0
 36 16  1  0
 37 15  1  0
 38 33  2  0
 39 33  1  0
 40 34  1  0
 41 40  2  0
 42 39  2  0
 43 38  1  0
 44 42  1  0
 10  6  1  0
 14 17  2  0
 22 28  1  0
 11  5  1  0
 41 35  1  0
 43 44  2  0
 13 45  1  0
 17 46  1  0
 18 47  1  0
 19 48  1  0
 23 49  1  0
 23 50  1  0
 25 51  1  0
 27 52  1  0
 28 53  1  0
 29 54  1  0
 30 55  1  0
 31 56  1  0
 32 57  1  0
 34 58  1  0
 35 59  1  0
 36 60  1  0
 36 61  1  0
 36 62  1  0
 37 63  1  0
 37 64  1  0
 37 65  1  0
 38 66  1  0
 39 67  1  0
 40 68  1  0
 41 69  1  0
 42 70  1  0
 43 71  1  0
 44 72  1  0
M  END
> <Name>
Molecule

> <Clean Energy>
64.7176

> <From>
www.bindingDB.org

> <BindingDB Reactant_set_id>
50154585

> <Ligand InChI>
InChI=1S/C36H28O7S/c1-22-18-27(19-23(2)35(22)43-44(40,41)28-16-17-29(36(38)39)31(37)21-28)25-12-14-26(15-13-25)34-30-10-6-7-11-32(30)42-33(34)20-24-8-4-3-5-9-24/h3-19,21,37H,20H2,1-2H3,(H,38,39)

> <Ligand InChI Key>
RNUVXRDJUNQSPP-UHFFFAOYSA-N

> <BindingDB MonomerID>
50086902

> <BindingDB Ligand Name>
4-[4''-(2-Benzyl-benzofuran-3-yl)-3,5-dimethyl-biphenyl-4-yloxysulfonyl]-2-hydroxy-benzoic acid::4-[4'-(2-Benzyl-benzofuran-3-yl)-3,5-dimethyl-biphenyl-4-yloxysulfonyl]-2-hydroxy-benzoic acid::CHEMBL2
4524

> <Target Name>
Tyrosine-protein phosphatase non-receptor type 1

> <Target Source Organism According to Curator or DataSource>
Homo sapiens

> <IC50 (nM)>
34

> <Curation/DataSource>
ChEMBL

> <Article DOI>
10.1021/jm990560c

> <BindingDB Entry DOI>
10.7270/Q2W958FT

> <PMID>
10753467

> <Authors>
Malamas, MS; Sredy, J; Moxham, C; Katz, A; Xu, W; McDevitt, R; Adebayo, FO; Sawicki, DR; Seestaller, L; Sullivan, D; Taylor, JR

> <Institution>
Wyeth-Ayerst Research

> <Link to Ligand in BindingDB>
http://www.bindingdb.org/bind/chemsearch/marvin/MolStructure.jsp?monomerid=50086902

> <Link to Ligand-Target Pair in BindingDB>
http://www.bindingdb.org/jsp/dbsearch/PrimarySearch_ki.jsp?energyterm=kJ/mole&tag=pol&polymerid=2622&target=Tyrosine-protein+phosphatase+non-receptor+type+1&column=ki&startPg=0&Increment=50&submit=Sea
rch
http://www.bindingdb.org/jsp/dbsearch/PrimarySearch_ki.jsp?energyterm=kJ/mole&tag=r21&monomerid=50086902&enzyme=Tyrosine-protein+phosphatase+non-receptor+type+1&column=ki&startPg=0&Increment=50&submit
=Search

> <PubChem CID of Ligand>
9873582

> <PubChem SID of Ligand>
103986013

> <ChEMBL ID of Ligand>
CHEMBL24524

> <ZINC ID of Ligand>
ZINC03981793

> <Number of Protein Chains in Target (bigger than 1 implies a multichain complex)>
1

> <BindingDB Target Chain Sequence>
MEMEKEFEQIDKSGSWAAIYQDIRHEASDFPCRVAKLPKNKNRNRYRDVSPFDHSRIKLHQEDNDYINASLIKMEEAQRSYILTQGPLPNTCGHFWEMVWEQKSRGVVMLNRVMEKGSLKCAQYWPQKEEKEMIFEDTNLKLTLISEDIKSYYTVRQLELENLTTQETREILHFHYTTWPDFGVPESPASFLNFLFKVRE
SGSLSPEHGPVVVHCSAGIGRSGTFCLADTCLLLMDKRKDPSSVDIKKVLLEMRKFRMGLIQTADQLRFSYLAVIEGAKFIMGDSSVQDQWKELSHEDLEPPPEHIPPPPRPPKRILEPHNGKCREFFPNHQWVKEETQEDKDCPIKEEKGSPLNAAPYGIESMSQDTEVRSRVVGGSLRGAQAASPAKGEPSLPEKDED
HALSYWKPFLVNMCVATVLTAGAYLCYRFLFNSNT

> <PDB ID(s) of Target Chain>
1BZJ,1G7G,1GFY,1JF7,1KAK,1KAV,1LQF,1NL9,1NNY,1NO6,1NZ7,1OEM,1OEO,1OES,1OET,1OEU,1OEV,1ONY,1ONZ,1PH0,1PXH,1PYN,1Q1M,1Q6J,1Q6M,1Q6N,1Q6P,1Q6S,1Q6T,1QXK,1SUG,1T48,1T49,1T4J,1WAX,1XBO,2AZR,2B07,2BGD,2BGE,
2CM2,2CM3,2CM7,2CM8,2CMA,2CMB,2CMC,2CNE,2CNF,2CNG,2CNH,2CNI,2F6T,2F6V,2F6W,2F6Y,2F6Z,2F70,2F71,2FJN,2H4G,2H4K,2HB1,2HNP,2HNQ,2QBP,2QBQ,2QBR,2QBS,2VEU,2VEV,2VEW,2VEX,2VEY,2ZMM,2ZN7,3A5J,3CWE,3D9C,3EAX,
3EB1,3EU0,3I7Z,3I80,3SME,4BJO,4I8N,4QBW,4Y14,5K9V,5K9W,5KA0,5KA1,5T19,6B90,6NTP,6W30,7KEY,7KLX,7LFO,7MN9,7MNA,8DU7,8G65,8G67,8G68,8G69,8G6A,8SKL

> <UniProt (SwissProt) Recommended Name of Target Chain>
Tyrosine-protein phosphatase non-receptor type 1

> <UniProt (SwissProt) Entry Name of Target Chain>
PTN1_HUMAN

> <UniProt (SwissProt) Primary ID of Target Chain>
P18031

> <UniProt (SwissProt) Secondary ID(s) of Target Chain>
Q5TGD8 Q9BQV9 Q9NQQ4

$$$$
Molecule
  SciTegic10242319433D

 63 66  0  0  0  0            999 V2000
    2.0728   -6.0941    1.2916 O   0  0
    2.0738   -5.3163    0.1500 P   0  0
    2.0108   -6.2308   -1.1062 O   0  0
    3.4946   -3.5232    1.1889 F   0  0
    3.4482   -4.3575    0.0943 C   0  0
    3.4177   -3.5490   -1.0230 F   0  0
    6.7535   -9.7550   -1.4842 O   0  0
    7.1970  -10.0238   -0.0594 S   0  0
    6.0336   -9.7368    0.8699 O   0  0
    8.5857   -8.9305    0.3031 N   0  0
    9.8565   -9.5150   -0.3041 C   0  0
    8.3618   -7.5292   -0.3115 C   0  0
    7.3738  -11.7945    0.0693 C   0  0
    6.2403  -12.4896    0.0168 C   0  0
    6.2477  -13.9347    0.0608 C   0  0
    7.4001  -14.5941    0.1447 C   0  0
    8.6646  -13.8433    0.2055 C   0  0
    8.6537  -12.5090    0.1717 C   0  0
    7.0717   -6.7060   -0.1161 C   0  0
    7.1361   -5.2462   -0.2469 C   0  0
    6.0241   -4.5134   -0.1637 C   0  0
    4.7249   -5.1697    0.0518 C   0  0
    4.6802   -6.4883    0.1801 C   0  0
    5.8905   -7.2682    0.0886 C   0  0
   11.2466   -8.8037   -0.1462 C   0  0
   12.3370   -9.5108   -0.4487 C   0  0
   13.6764   -8.9076   -0.3709 C   0  0
   13.8144   -7.6296   -0.0113 C   0  0
   12.6371   -6.8422    0.3263 C   0  0
   11.4253   -7.3908    0.2756 C   0  0
   15.1434   -7.0149    0.0342 C   0  0
   16.2691   -7.6817   -0.2070 C   0  0
   17.4372   -6.5261   -0.0386 S   0  0
   16.5188   -5.2418    0.3162 N   0  0
   15.3430   -5.5931    0.3346 N   0  0
    7.4109  -15.9976    0.1668 O   0  0
    6.0699  -16.5179    0.0891 C   0  0
    6.1088  -18.0121    0.0452 C   0  0
    4.9225  -18.7375   -0.0095 O   0  0
    7.1955  -18.5999    0.0479 O   0  0
    0.8244   -4.4025    0.1651 O   0  0
    6.0973   -3.1802   -0.2793 F   0  0
    2.8454   -6.8678   -1.1182 H   0  0
    9.6744   -9.5981   -1.3756 H   0  0
    9.9711  -10.5109    0.1238 H   0  0
    8.4730   -7.6560   -1.3884 H   0  0
    9.1720   -6.9060    0.0671 H   0  0
    5.2904  -11.9607   -0.0606 H   0  0
    5.3074  -14.4849    0.0251 H   0  0
    9.6117  -14.3778    0.2783 H   0  0
    9.5895  -11.9522    0.2198 H   0  0
    8.0964   -4.7582   -0.4129 H   0  0
    3.7259   -6.9850    0.3554 H   0  0
    5.8308   -8.3517    0.1909 H   0  0
   12.2338  -10.5509   -0.7580 H   0  0
   14.5571   -9.5049   -0.6071 H   0  0
   12.7485   -5.7990    0.6219 H   0  0
   10.5534   -6.7957    0.5470 H   0  0
   16.3912   -8.7359   -0.4557 H   0  0
    5.5056  -16.1962    0.9644 H   0  0
    5.5875  -16.1418   -0.8132 H   0  0
    4.3416  -18.5239    0.8387 H   0  0
   -0.0425   -4.9944    0.1902 H   0  0
 21 22  1  0
  9  8  2  0
 22 23  2  0
  8 13  1  0
 23 24  1  0
 24 19  2  0
 22  5  1  0
  5  4  1  0
 11 25  1  0
 13 14  2  0
 25 26  2  0
  6  5  1  0
 26 27  1  0
 14 15  1  0
 27 28  2  0
 28 29  1  0
 15 16  2  0
 29 30  2  0
 30 25  1  0
 31 32  2  0
  2  1  2  0
 16 17  1  0
  3  2  1  0
 17 18  2  0
 18 13  1  0
 32 33  1  0
 33 34  1  0
 34 35  2  0
 35 31  1  0
 28 31  1  0
 10 11  1  0
 16 36  1  0
 12 19  1  0
 36 37  1  0
 10  8  1  0
 37 38  1  0
 19 20  1  0
 38 39  1  0
  8  7  2  0
 38 40  2  0
  5  2  1  0
 20 21  2  0
  2 41  1  0
 10 12  1  0
 21 42  1  0
  3 43  1  0
 11 44  1  0
 11 45  1  0
 12 46  1  0
 12 47  1  0
 14 48  1  0
 15 49  1  0
 17 50  1  0
 18 51  1  0
 20 52  1  0
 23 53  1  0
 24 54  1  0
 26 55  1  0
 27 56  1  0
 29 57  1  0
 30 58  1  0
 32 59  1  0
 37 60  1  0
 37 61  1  0
 39 62  1  0
 41 63  1  0
M  END
> <Name>
Molecule

> <Clean Energy>
59.9596

> <From>
www.bindingDB.org

> <BindingDB Reactant_set_id>
50713187

> <Ligand InChI>
InChI=1S/C25H21F3N3O8PS2/c26-22-11-17(3-10-21(22)25(27,28)40(34,35)36)13-31(12-16-1-4-18(5-2-16)23-15-41-30-29-23)42(37,38)20-8-6-19(7-9-20)39-14-24(32)33/h1-11,15H,12-14H2,(H,32,33)(H2,34,35,36)

> <Ligand InChI Key>
YLMTWYKRXNHYEX-UHFFFAOYSA-N

> <BindingDB MonomerID>
50362183

> <BindingDB Ligand Name>
CHEMBL1938816

> <Target Name>
Tyrosine-protein phosphatase non-receptor type 1

> <Target Source Organism According to Curator or DataSource>
Homo sapiens

> <IC50 (nM)>
35

> <Curation/DataSource>
ChEMBL

> <Article DOI>
10.1016/j.bmcl.2011.11.122

> <BindingDB Entry DOI>
10.7270/Q2ZS2X05

> <PMID>
22189136

> <Authors>
Patel, D; Jain, M; Shah, SR; Bahekar, R; Jadav, P; Joharapurkar, A; Dhanesha, N; Shaikh, M; Sairam, KV; Kapadnis, P

> <Institution>
M.S. University of Baroda

> <Link to Ligand in BindingDB>
http://www.bindingdb.org/bind/chemsearch/marvin/MolStructure.jsp?monomerid=50362183

> <Link to Ligand-Target Pair in BindingDB>
http://www.bindingdb.org/jsp/dbsearch/PrimarySearch_ki.jsp?energyterm=kJ/mole&tag=pol&polymerid=2622&target=Tyrosine-protein+phosphatase+non-receptor+type+1&column=ki&startPg=0&Increment=50&submit=Sea
rch
http://www.bindingdb.org/jsp/dbsearch/PrimarySearch_ki.jsp?energyterm=kJ/mole&tag=r21&monomerid=50362183&enzyme=Tyrosine-protein+phosphatase+non-receptor+type+1&column=ki&startPg=0&Increment=50&submit
=Search

> <PubChem CID of Ligand>
57397734

> <PubChem SID of Ligand>
136966245

> <ChEMBL ID of Ligand>
CHEMBL1938816

> <ZINC ID of Ligand>
ZINC82170235

> <Number of Protein Chains in Target (bigger than 1 implies a multichain complex)>
1

> <BindingDB Target Chain Sequence>
MEMEKEFEQIDKSGSWAAIYQDIRHEASDFPCRVAKLPKNKNRNRYRDVSPFDHSRIKLHQEDNDYINASLIKMEEAQRSYILTQGPLPNTCGHFWEMVWEQKSRGVVMLNRVMEKGSLKCAQYWPQKEEKEMIFEDTNLKLTLISEDIKSYYTVRQLELENLTTQETREILHFHYTTWPDFGVPESPASFLNFLFKVRE
SGSLSPEHGPVVVHCSAGIGRSGTFCLADTCLLLMDKRKDPSSVDIKKVLLEMRKFRMGLIQTADQLRFSYLAVIEGAKFIMGDSSVQDQWKELSHEDLEPPPEHIPPPPRPPKRILEPHNGKCREFFPNHQWVKEETQEDKDCPIKEEKGSPLNAAPYGIESMSQDTEVRSRVVGGSLRGAQAASPAKGEPSLPEKDED
HALSYWKPFLVNMCVATVLTAGAYLCYRFLFNSNT

> <PDB ID(s) of Target Chain>
1BZJ,1G7G,1GFY,1JF7,1KAK,1KAV,1LQF,1NL9,1NNY,1NO6,1NZ7,1OEM,1OEO,1OES,1OET,1OEU,1OEV,1ONY,1ONZ,1PH0,1PXH,1PYN,1Q1M,1Q6J,1Q6M,1Q6N,1Q6P,1Q6S,1Q6T,1QXK,1SUG,1T48,1T49,1T4J,1WAX,1XBO,2AZR,2B07,2BGD,2BGE,
2CM2,2CM3,2CM7,2CM8,2CMA,2CMB,2CMC,2CNE,2CNF,2CNG,2CNH,2CNI,2F6T,2F6V,2F6W,2F6Y,2F6Z,2F70,2F71,2FJN,2H4G,2H4K,2HB1,2HNP,2HNQ,2QBP,2QBQ,2QBR,2QBS,2VEU,2VEV,2VEW,2VEX,2VEY,2ZMM,2ZN7,3A5J,3CWE,3D9C,3EAX,
3EB1,3EU0,3I7Z,3I80,3SME,4BJO,4I8N,4QBW,4Y14,5K9V,5K9W,5KA0,5KA1,5T19,6B90,6NTP,6W30,7KEY,7KLX,7LFO,7MN9,7MNA,8DU7,8G65,8G67,8G68,8G69,8G6A,8SKL

> <UniProt (SwissProt) Recommended Name of Target Chain>
Tyrosine-protein phosphatase non-receptor type 1

> <UniProt (SwissProt) Entry Name of Target Chain>
PTN1_HUMAN

> <UniProt (SwissProt) Primary ID of Target Chain>
P18031

> <UniProt (SwissProt) Secondary ID(s) of Target Chain>
Q5TGD8 Q9BQV9 Q9NQQ4

$$$$
Molecule
  SciTegic10242319433D

 69 73  0  0  0  0            999 V2000
   15.3933  -15.9415   -1.1523 O   0  0
   15.5732  -16.8163    0.0735 S   0  0
   15.6085  -15.9604    1.3254 O   0  0
   17.0534  -18.5981   -1.1697 F   0  0
   17.1097  -17.7738   -0.0623 C   0  0
   17.2135  -18.6185    1.0244 F   0  0
   24.5676  -18.4380   -0.2624 C   0  0
   23.2789  -17.4014   -0.2716 C   0  0
   23.4450  -16.0746   -0.2051 C   0  0
   22.2233  -15.1665   -0.1557 C   0  0
   21.9068  -17.8400   -0.2703 C   0  0
   20.8487  -17.0789   -0.2211 C   0  0
   20.9838  -15.6913   -0.1624 C   0  0
   19.7579  -14.8790   -0.1016 C   0  0
   18.5468  -15.4737   -0.0846 C   0  0
   18.4344  -16.9795   -0.1283 C   0  0
   19.5407  -17.7000   -0.1965 C   0  0
   17.4611  -14.7040   -0.0260 F   0  0
   14.2322  -17.9234    0.1867 N   0  0
   22.2893  -20.1816   -0.6026 O   0  0
   23.1065  -20.5837    0.5874 S   0  0
   22.9196  -19.6566    1.7737 O   0  0
   24.4653  -20.0520   -0.4106 N   0  0
   25.8379  -20.5668   -0.0226 C   0  0
   21.7907  -21.7423    0.4990 C   0  0
   21.8261  -23.0618    0.3650 C   0  0
   20.5227  -23.7765    0.2225 C   0  0
   19.3658  -23.0907    0.2061 C   0  0
   19.3672  -21.6765    0.3492 C   0  0
   20.5090  -21.0459    0.4959 C   0  0
   26.0311  -22.0752   -0.0846 C   0  0
   27.2360  -22.6068    0.1418 C   0  0
   27.4103  -24.0745    0.1303 C   0  0
   26.3560  -24.8585   -0.0949 C   0  0
   25.0629  -24.2666   -0.3538 C   0  0
   24.9191  -22.9471   -0.3570 C   0  0
   26.4659  -26.3125   -0.0681 C   0  0
   27.6128  -26.9664    0.1140 C   0  0
   27.1465  -28.5518    0.0775 S   0  0
   25.5535  -28.3798   -0.1499 N   0  0
   25.2967  -27.1833   -0.2162 N   0  0
   18.1316  -23.7039    0.0622 O   0  0
   18.2430  -25.1027   -0.0563 C   0  0
   16.8630  -25.6569   -0.1305 C   0  0
   16.6733  -27.0276   -0.1800 O   0  0
   15.8900  -24.8928   -0.1209 O   0  0
   25.2092  -18.1112   -1.0807 H   0  0
   25.0730  -18.2649    0.6877 H   0  0
   24.4476  -15.6472   -0.1865 H   0  0
   22.3534  -14.0851   -0.1147 H   0  0
   21.7357  -18.9156   -0.3149 H   0  0
   19.8286  -13.7918   -0.0701 H   0  0
   19.4667  -18.7868   -0.2351 H   0  0
   14.1996  -18.5357   -0.6902 H   0  0
   13.3194  -17.3714    0.2699 H   0  0
   26.5661  -20.1104   -0.6932 H   0  0
   26.0358  -20.2479    1.0007 H   0  0
   22.7716  -23.6041    0.3591 H   0  0
   20.5088  -24.8626    0.1311 H   0  0
   18.4293  -21.1212    0.3373 H   0  0
   20.4991  -19.9630    0.6197 H   0  0
   28.0903  -21.9580    0.3351 H   0  0
   28.3932  -24.5124    0.3045 H   0  0
   24.2021  -24.9067   -0.5472 H   0  0
   23.9409  -22.5160   -0.5699 H   0  0
   28.6131  -26.5563    0.2531 H   0  0
   18.7951  -25.3566   -0.9612 H   0  0
   18.7611  -25.5095    0.8122 H   0  0
   17.1506  -27.4170   -1.0304 H   0  0
 11  8  1  0
  5  4  1  0
 12 13  1  0
  6  5  1  0
 13 14  1  0
  7  8  1  0
 14 15  2  0
 15 16  1  0
  8  9  2  0
 16 17  2  0
 17 12  1  0
  2  1  2  0
 15 18  1  0
 16  5  1  0
  5  2  1  0
  9 10  1  0
  2 19  1  0
 10 13  2  0
  3  2  2  0
 12 11  2  0
 23  7  1  0
 21 20  2  0
 23 21  1  0
 21 25  1  0
 22 21  2  0
 23 24  1  0
 24 31  1  0
 25 26  2  0
 30 25  1  0
 26 27  1  0
 27 28  2  0
 28 29  1  0
 28 42  1  0
 29 30  2  0
 31 32  2  0
 36 31  1  0
 32 33  1  0
 33 34  2  0
 34 35  1  0
 34 37  1  0
 35 36  2  0
 37 38  2  0
 41 37  1  0
 38 39  1  0
 39 40  1  0
 40 41  2  0
 42 43  1  0
 43 44  1  0
 44 45  1  0
 44 46  2  0
  7 47  1  0
  7 48  1  0
  9 49  1  0
 10 50  1  0
 11 51  1  0
 14 52  1  0
 17 53  1  0
 19 54  1  0
 19 55  1  0
 24 56  1  0
 24 57  1  0
 26 58  1  0
 27 59  1  0
 29 60  1  0
 30 61  1  0
 32 62  1  0
 33 63  1  0
 35 64  1  0
 36 65  1  0
 38 66  1  0
 43 67  1  0
 43 68  1  0
 45 69  1  0
M  END
> <Name>
Molecule

> <Clean Energy>
123.61

> <From>
www.bindingDB.org

> <BindingDB Reactant_set_id>
50713201

> <Ligand InChI>
InChI=1S/C29H23F3N4O7S3/c30-26-13-21-6-3-19(11-22(21)12-25(26)29(31,32)46(33,41)42)15-36(14-18-1-4-20(5-2-18)27-17-44-35-34-27)45(39,40)24-9-7-23(8-10-24)43-16-28(37)38/h1-13,17H,14-16H2,(H,37,38)(H2,
33,41,42)

> <Ligand InChI Key>
JKKJQVBKJKXXOI-UHFFFAOYSA-N

> <BindingDB MonomerID>
50362197

> <BindingDB Ligand Name>
CHEMBL1938830

> <Target Name>
Tyrosine-protein phosphatase non-receptor type 1

> <Target Source Organism According to Curator or DataSource>
Homo sapiens

> <IC50 (nM)>
35

> <Curation/DataSource>
ChEMBL

> <Article DOI>
10.1016/j.bmcl.2011.11.122

> <BindingDB Entry DOI>
10.7270/Q2ZS2X05

> <PMID>
22189136

> <Authors>
Patel, D; Jain, M; Shah, SR; Bahekar, R; Jadav, P; Joharapurkar, A; Dhanesha, N; Shaikh, M; Sairam, KV; Kapadnis, P

> <Institution>
M.S. University of Baroda

> <Link to Ligand in BindingDB>
http://www.bindingdb.org/bind/chemsearch/marvin/MolStructure.jsp?monomerid=50362197

> <Link to Ligand-Target Pair in BindingDB>
http://www.bindingdb.org/jsp/dbsearch/PrimarySearch_ki.jsp?energyterm=kJ/mole&tag=pol&polymerid=2622&target=Tyrosine-protein+phosphatase+non-receptor+type+1&column=ki&startPg=0&Increment=50&submit=Sea
rch
http://www.bindingdb.org/jsp/dbsearch/PrimarySearch_ki.jsp?energyterm=kJ/mole&tag=r21&monomerid=50362197&enzyme=Tyrosine-protein+phosphatase+non-receptor+type+1&column=ki&startPg=0&Increment=50&submit
=Search

> <PubChem CID of Ligand>
57399401

> <PubChem SID of Ligand>
136966259

> <ChEMBL ID of Ligand>
CHEMBL1938830

> <ZINC ID of Ligand>
ZINC82164791

> <Number of Protein Chains in Target (bigger than 1 implies a multichain complex)>
1

> <BindingDB Target Chain Sequence>
MEMEKEFEQIDKSGSWAAIYQDIRHEASDFPCRVAKLPKNKNRNRYRDVSPFDHSRIKLHQEDNDYINASLIKMEEAQRSYILTQGPLPNTCGHFWEMVWEQKSRGVVMLNRVMEKGSLKCAQYWPQKEEKEMIFEDTNLKLTLISEDIKSYYTVRQLELENLTTQETREILHFHYTTWPDFGVPESPASFLNFLFKVRE
SGSLSPEHGPVVVHCSAGIGRSGTFCLADTCLLLMDKRKDPSSVDIKKVLLEMRKFRMGLIQTADQLRFSYLAVIEGAKFIMGDSSVQDQWKELSHEDLEPPPEHIPPPPRPPKRILEPHNGKCREFFPNHQWVKEETQEDKDCPIKEEKGSPLNAAPYGIESMSQDTEVRSRVVGGSLRGAQAASPAKGEPSLPEKDED
HALSYWKPFLVNMCVATVLTAGAYLCYRFLFNSNT

> <PDB ID(s) of Target Chain>
1BZJ,1G7G,1GFY,1JF7,1KAK,1KAV,1LQF,1NL9,1NNY,1NO6,1NZ7,1OEM,1OEO,1OES,1OET,1OEU,1OEV,1ONY,1ONZ,1PH0,1PXH,1PYN,1Q1M,1Q6J,1Q6M,1Q6N,1Q6P,1Q6S,1Q6T,1QXK,1SUG,1T48,1T49,1T4J,1WAX,1XBO,2AZR,2B07,2BGD,2BGE,
2CM2,2CM3,2CM7,2CM8,2CMA,2CMB,2CMC,2CNE,2CNF,2CNG,2CNH,2CNI,2F6T,2F6V,2F6W,2F6Y,2F6Z,2F70,2F71,2FJN,2H4G,2H4K,2HB1,2HNP,2HNQ,2QBP,2QBQ,2QBR,2QBS,2VEU,2VEV,2VEW,2VEX,2VEY,2ZMM,2ZN7,3A5J,3CWE,3D9C,3EAX,
3EB1,3EU0,3I7Z,3I80,3SME,4BJO,4I8N,4QBW,4Y14,5K9V,5K9W,5KA0,5KA1,5T19,6B90,6NTP,6W30,7KEY,7KLX,7LFO,7MN9,7MNA,8DU7,8G65,8G67,8G68,8G69,8G6A,8SKL

> <UniProt (SwissProt) Recommended Name of Target Chain>
Tyrosine-protein phosphatase non-receptor type 1

> <UniProt (SwissProt) Entry Name of Target Chain>
PTN1_HUMAN

> <UniProt (SwissProt) Primary ID of Target Chain>
P18031

> <UniProt (SwissProt) Secondary ID(s) of Target Chain>
Q5TGD8 Q9BQV9 Q9NQQ4

$$$$
1
  SciTegic10242319433D

 69 73  0  0  0  0            999 V2000
    1.7501    4.7726   -0.3433 C   0  0
    1.0045    5.8495   -0.0523 C   0  0
   -0.4574    5.7027    0.1858 C   0  0
    1.1164    3.4448   -0.4364 C   0  0
   -0.1949    3.3812   -0.2241 C   0  0
   -0.9621    4.4812    0.0868 C   0  0
   -2.1916    2.6253    0.0528 C   0  0
   -2.2655    4.0459    0.2722 N   0  0
   -0.9909    2.2673   -0.2416 N   0  0
   -3.3823    1.6320    0.2195 C   0  0  1  0  0  0
   -4.6078    2.3448   -0.1501 N   0  0
   -5.8356    1.9181    0.1770 C   0  0
   -5.9715    0.8650    0.8101 O   0  0
   -7.0991    2.7226   -0.2122 C   0  0  2  0  0  0
   -7.1647    4.1145    0.5250 C   0  0
   -6.1190    5.1622    0.1572 C   0  0
   -5.1262    7.3460    0.5332 C   0  0
   -6.0914    6.2950    0.8578 C   0  0
   -5.1824    4.9896   -0.9637 C   0  0
   -4.3035    5.9456   -1.2586 C   0  0
   -4.2716    7.1784   -0.4733 C   0  0
   -8.2802    1.9501    0.1599 N   0  0
   -9.5361    2.3920   -0.0377 C   0  0
  -10.6954    1.5323    0.3796 C   0  0
   -9.7620    3.4924   -0.5583 O   0  0
   -3.2346    0.2318   -0.5693 C   0  0
   -1.9841   -0.6543   -0.2496 C   0  0
   -1.0598   -0.2569    0.6189 C   0  0
   -1.7730   -1.9390   -0.9624 C   0  0
   -0.6534   -2.6453   -0.7547 C   0  0
    0.3652   -2.1337    0.1812 C   0  0
    0.1474   -1.0046    0.8354 C   0  0
    1.6825   -2.8113    0.4033 C   0  0  2  0  0  0
    2.8509   -2.0902   -0.3066 C   0  0
    1.8972   -4.4603   -0.1756 S   0  0
    1.0929   -5.4672    0.6229 O   0  0
    1.6292   -4.5674   -1.6646 O   0  0
    3.5565   -4.4446    0.1028 N   0  0
    3.9889   -3.0918   -0.0324 C   0  0
    5.1733   -2.7490    0.0611 O   0  0
    2.8219    4.8792   -0.5106 H   0  0
    1.4700    6.8332    0.0099 H   0  0
   -1.0841    6.5603    0.4304 H   0  0
    1.6980    2.5528   -0.6693 H   0  0
   -3.1265    4.6305    0.5207 H   0  0
   -3.4565    1.3957    1.2810 H   0  0
   -4.5181    3.2524   -0.7098 H   0  0
   -7.1024    2.8866   -1.2898 H   0  0
   -8.1442    4.5461    0.3186 H   0  0
   -7.0700    3.9214    1.5935 H   0  0
   -5.1072    8.2669    1.1162 H   0  0
   -6.7932    6.4400    1.6792 H   0  0
   -5.2078    4.0748   -1.5557 H   0  0
   -3.6073    5.8088   -2.0862 H   0  0
   -3.5492    7.9590   -0.7118 H   0  0
   -8.1414    0.9894    0.6101 H   0  0
  -11.6296    2.0431    0.1465 H   0  0
  -10.6421    1.3451    1.4521 H   0  0
  -10.6567    0.5841   -0.1567 H   0  0
   -4.1206   -0.3626   -0.3461 H   0  0
   -3.2084    0.4597   -1.6349 H   0  0
   -1.2224    0.6618    1.1825 H   0  0
   -2.5292   -2.3082   -1.6552 H   0  0
   -0.4965   -3.5909   -1.2736 H   0  0
    0.8900   -0.6388    1.5445 H   0  0
    1.8861   -2.8037    1.4741 H   0  0
    2.6645   -1.9721   -1.3740 H   0  0
    3.0542   -1.1157    0.1373 H   0  0
    4.1708   -5.2888    0.3368 H   0  0
  1  2  2  0
  1  4  1  0
  2  3  1  0
  3  6  2  0
  5  4  2  0
  9  5  1  0
  6  8  1  0
  8  7  1  0
  7  9  2  0
  6  5  1  0
 10  7  1  0
 10 26  1  0
 10 11  1  0
 11 12  1  0
 14 12  1  0
 12 13  2  0
 14 22  1  0
 14 15  1  0
 15 16  1  0
 18 16  2  0
 16 19  1  0
 17 18  1  0
 17 21  2  0
 19 20  2  0
 20 21  1  0
 22 23  1  0
 23 24  1  0
 23 25  2  0
 26 27  1  0
 28 27  2  0
 27 29  1  0
 28 32  1  0
 29 30  2  0
 30 31  1  0
 31 32  2  0
 33 31  1  0
 33 34  1  0
 33 35  1  0
 34 39  1  0
 35 38  1  0
 38 39  1  0
 35 36  2  0
 35 37  2  0
 39 40  2  0
  1 41  1  0
  2 42  1  0
  3 43  1  0
  4 44  1  0
  8 45  1  0
 10 46  1  0
 11 47  1  0
 14 48  1  0
 15 49  1  0
 15 50  1  0
 17 51  1  0
 18 52  1  0
 19 53  1  0
 20 54  1  0
 21 55  1  0
 22 56  1  0
 24 57  1  0
 24 58  1  0
 24 59  1  0
 26 60  1  0
 26 61  1  0
 28 62  1  0
 29 63  1  0
 30 64  1  0
 32 65  1  0
 33 66  1  0
 34 67  1  0
 34 68  1  0
 38 69  1  0
M  END
> <Name>
1

> <Clean Energy>
92.585

> <From>
www.bindingDB.org

> <BindingDB Reactant_set_id>
50350944

> <Ligand InChI>
InChI=1S/C29H29N5O5S/c1-18(35)30-25(16-19-7-3-2-4-8-19)29(37)33-24(28-31-22-9-5-6-10-23(22)32-28)15-20-11-13-21(14-12-20)26-17-27(36)34-40(26,38)39/h2-14,24-26H,15-17H2,1H3,(H,30,35)(H,31,32)(H,33,37)
(H,34,36)/t24-,25-,26-/m0/s1

> <Ligand InChI Key>
DLGIAAKQWIJBHK-GSDHBNRESA-N

> <BindingDB MonomerID>
14268

> <BindingDB Ligand Name>
(2S)-N-[(1S)-1-(1H-1,3-benzodiazol-2-yl)-2-{4-[(5S)-1,1,3-trioxo-1,2-thiazolidin-5-yl]phenyl}ethyl]-2-acetamido-3-phenylpropanamide::(S)-isothiazolidinone::CHEMBL211655::IZD deriv. 1

> <Target Name>
Tyrosine-protein phosphatase non-receptor type 1

> <Target Source Organism According to Curator or DataSource>
Homo sapiens

> <IC50 (nM)>
35

> <Curation/DataSource>
ChEMBL

> <Article DOI>
10.1021/jm0600904

> <BindingDB Entry DOI>
10.7270/Q2JQ10M8

> <PMID>
16789735

> <Authors>
Combs, AP; Zhu, W; Crawley, ML; Glass, B; Polam, P; Sparks, RB; Modi, D; Takvorian, A; McLaughlin, E; Yue, EW; Wasserman, Z; Bower, M; Wei, M; Rupar, M; Ala, PJ; Reid, BM; Ellis, D; Gonneville, L; Emm
, T; Taylor, N; Yeleswaram, S; Li, Y; Wynn, R; Burn, TC; Hollis, G; Liu, PC; Metcalf, B

> <Institution>
Incyte Corporation

> <Link to Ligand in BindingDB>
http://www.bindingdb.org/bind/chemsearch/marvin/MolStructure.jsp?monomerid=14268

> <Link to Ligand-Target Pair in BindingDB>
http://www.bindingdb.org/jsp/dbsearch/PrimarySearch_ki.jsp?energyterm=kJ/mole&tag=pol&polymerid=2622&target=Tyrosine-protein+phosphatase+non-receptor+type+1&column=ki&startPg=0&Increment=50&submit=Sea
rch
http://www.bindingdb.org/jsp/dbsearch/PrimarySearch_ki.jsp?energyterm=kJ/mole&tag=r21&monomerid=14268&enzyme=Tyrosine-protein+phosphatase+non-receptor+type+1&column=ki&startPg=0&Increment=50&submit=Se
arch

> <PubChem CID of Ligand>
11693218

> <PubChem SID of Ligand>
46514614

> <ChEMBL ID of Ligand>
CHEMBL211655

> <ZINC ID of Ligand>
ZINC14955169

> <Number of Protein Chains in Target (bigger than 1 implies a multichain complex)>
1

> <BindingDB Target Chain Sequence>
MEMEKEFEQIDKSGSWAAIYQDIRHEASDFPCRVAKLPKNKNRNRYRDVSPFDHSRIKLHQEDNDYINASLIKMEEAQRSYILTQGPLPNTCGHFWEMVWEQKSRGVVMLNRVMEKGSLKCAQYWPQKEEKEMIFEDTNLKLTLISEDIKSYYTVRQLELENLTTQETREILHFHYTTWPDFGVPESPASFLNFLFKVRE
SGSLSPEHGPVVVHCSAGIGRSGTFCLADTCLLLMDKRKDPSSVDIKKVLLEMRKFRMGLIQTADQLRFSYLAVIEGAKFIMGDSSVQDQWKELSHEDLEPPPEHIPPPPRPPKRILEPHNGKCREFFPNHQWVKEETQEDKDCPIKEEKGSPLNAAPYGIESMSQDTEVRSRVVGGSLRGAQAASPAKGEPSLPEKDED
HALSYWKPFLVNMCVATVLTAGAYLCYRFLFNSNT

> <PDB ID(s) of Target Chain>
1BZJ,1G7G,1GFY,1JF7,1KAK,1KAV,1LQF,1NL9,1NNY,1NO6,1NZ7,1OEM,1OEO,1OES,1OET,1OEU,1OEV,1ONY,1ONZ,1PH0,1PXH,1PYN,1Q1M,1Q6J,1Q6M,1Q6N,1Q6P,1Q6S,1Q6T,1QXK,1SUG,1T48,1T49,1T4J,1WAX,1XBO,2AZR,2B07,2BGD,2BGE,
2CM2,2CM3,2CM7,2CM8,2CMA,2CMB,2CMC,2CNE,2CNF,2CNG,2CNH,2CNI,2F6T,2F6V,2F6W,2F6Y,2F6Z,2F70,2F71,2FJN,2H4G,2H4K,2HB1,2HNP,2HNQ,2QBP,2QBQ,2QBR,2QBS,2VEU,2VEV,2VEW,2VEX,2VEY,2ZMM,2ZN7,3A5J,3CWE,3D9C,3EAX,
3EB1,3EU0,3I7Z,3I80,3SME,4BJO,4I8N,4QBW,4Y14,5K9V,5K9W,5KA0,5KA1,5T19,6B90,6NTP,6W30,7KEY,7KLX,7LFO,7MN9,7MNA,8DU7,8G65,8G67,8G68,8G69,8G6A,8SKL

> <UniProt (SwissProt) Recommended Name of Target Chain>
Tyrosine-protein phosphatase non-receptor type 1

> <UniProt (SwissProt) Entry Name of Target Chain>
PTN1_HUMAN

> <UniProt (SwissProt) Primary ID of Target Chain>
P18031

> <UniProt (SwissProt) Secondary ID(s) of Target Chain>
Q5TGD8 Q9BQV9 Q9NQQ4

$$$$
Molecule
  SciTegic10242319433D

 59 63  0  0  0  0            999 V2000
   13.3317   -0.2142   -0.3711 C   0  0
   13.3517   -1.4996   -0.7389 C   0  0
   14.5741   -2.3271   -0.5168 C   0  0
   15.6685   -1.7764    0.0170 C   0  0
   15.6279   -0.3564    0.3967 C   0  0
   14.5189    0.3353    0.2158 C   0  0
   12.0568    0.6577   -0.6401 C   0  0
   16.9165   -2.6057    0.2926 C   0  0  1  0  0  0
   11.8232    2.0951    0.0956 C   0  0  2  0  0  0
   10.4344    2.6214   -0.3119 N   0  0
   12.9580    3.1778   -0.0843 C   0  0
   14.2178    2.8818   -0.1210 N   0  0
   12.7872    4.6056   -0.1042 N   0  0
   14.0989    5.1097   -0.1678 C   0  0
   14.9409    4.0294   -0.1807 C   0  0
   16.2777    4.1456   -0.2253 C   0  0
   16.8312    5.5070   -0.2734 C   0  0
   16.0054    6.5637   -0.2660 C   0  0
   14.5269    6.3544   -0.2059 C   0  0
   16.7781   -4.3564    0.1372 S   0  0
   18.4248   -4.6006    0.3611 N   0  5
   19.0876   -3.4348   -0.1165 C   0  0
   18.1382   -2.3326   -0.6266 C   0  0
   16.3771   -4.7587   -1.2693 O   0  0
   15.8687   -4.9670    1.1856 O   0  0
   20.3179   -3.3134   -0.1198 O   0  0
    9.2156    1.7942    0.7043 S   0  0
    7.5982    1.3549    0.0885 C   0  0
    9.8032    0.5091    1.2434 O   0  0
    8.9395    2.7514    1.8445 O   0  0
    6.6181    2.2569    0.0288 C   0  0
    5.2453    1.8242   -0.2954 C   0  0
    4.9737    0.5302   -0.4706 C   0  0
    6.0472   -0.4594   -0.3821 C   0  0
    7.2939   -0.0661   -0.1277 C   0  0
   16.8111    0.3624    1.0005 C   0  0
   12.4717   -1.9450   -1.2028 H   0  0
   14.5740   -3.3821   -0.7905 H   0  0
   14.5045    1.3792    0.5290 H   0  0
   11.2009    0.0367   -0.3757 H   0  0
   12.0441    0.8575   -1.7116 H   0  0
   17.2269   -2.3944    1.3159 H   0  0
   11.7683    1.8855    1.1638 H   0  0
   10.2529    2.4074   -1.3445 H   0  0
   11.8715    5.1583   -0.0768 H   0  0
   16.9248    3.2685   -0.2258 H   0  0
   17.9101    5.6569   -0.3150 H   0  0
   16.4122    7.5743   -0.3038 H   0  0
   13.8333    7.1952   -0.1941 H   0  0
   18.5505   -1.3358   -0.4702 H   0  0
   17.8919   -2.4632   -1.6804 H   0  0
    6.8301    3.3091    0.2187 H   0  0
    4.4508    2.5642   -0.3919 H   0  0
    3.9529    0.2105   -0.6795 H   0  0
    5.8271   -1.5175   -0.5242 H   0  0
    8.0947   -0.8041   -0.0795 H   0  0
   16.5444    1.4007    1.1971 H   0  0
   17.6505    0.3286    0.3059 H   0  0
   17.0934   -0.1228    1.9349 H   0  0
  8  4  1  0
 17 18  2  0
  3  4  2  0
 18 19  1  0
 19 14  2  0
  8 20  1  0
  9  7  1  0
  1  2  2  0
  9 10  1  0
  4  5  1  0
 20 21  1  0
 21 22  1  0
 22 23  1  0
  8 23  1  0
  9 11  1  0
 20 24  2  0
 11 12  2  0
 20 25  2  0
 22 26  2  0
  5  6  2  0
 10 27  1  0
 12 15  1  0
 27 28  1  0
 14 13  1  0
 27 29  2  0
 13 11  1  0
 27 30  2  0
  6  1  1  0
 28 31  2  0
  2  3  1  0
 31 32  1  0
 14 15  1  0
 32 33  2  0
  1  7  1  0
 33 34  1  0
 15 16  2  0
 34 35  2  0
 35 28  1  0
  5 36  1  0
 16 17  1  0
  2 37  1  0
  3 38  1  0
  6 39  1  0
  7 40  1  0
  7 41  1  0
  8 42  1  0
  9 43  1  0
 10 44  1  0
 13 45  1  0
 16 46  1  0
 17 47  1  0
 18 48  1  0
 19 49  1  0
 23 50  1  0
 23 51  1  0
 31 52  1  0
 32 53  1  0
 33 54  1  0
 34 55  1  0
 35 56  1  0
 36 57  1  0
 36 58  1  0
 36 59  1  0
M  CHG  1  21  -1
M  END
> <Name>
Molecule

> <Clean Energy>
99.211

> <From>
www.bindingDB.org

> <BindingDB Reactant_set_id>
50350918

> <Ligand InChI>
InChI=1S/C25H24N4O5S2/c1-16-13-17(11-12-19(16)23-15-24(30)29-36(23,33)34)14-22(25-26-20-9-5-6-10-21(20)27-25)28-35(31,32)18-7-3-2-4-8-18/h2-13,22-23,28H,14-15H2,1H3,(H2,26,27,29,30)/p-1/t22-,23-/m0/s1

> <Ligand InChI Key>
VOBOZLZUGKAOBD-GOTSBHOMSA-M

> <BindingDB MonomerID>
50189640

> <BindingDB Ligand Name>
CHEMBL377989::N-((1S)-1-(1H-benzimidazol-2-yl)-2-{4-[(5S)-1,1-dioxo-3-oxoisothiazolidin-5-yl]-3-methylphenyl}ethyl)benzenesulfonamide

> <Target Name>
Tyrosine-protein phosphatase non-receptor type 1

> <Target Source Organism According to Curator or DataSource>
Homo sapiens

> <IC50 (nM)>
35

> <Curation/DataSource>
ChEMBL

> <Article DOI>
10.1021/jm0600904

> <BindingDB Entry DOI>
10.7270/Q2JQ10M8

> <PMID>
16789735

> <Authors>
Combs, AP; Zhu, W; Crawley, ML; Glass, B; Polam, P; Sparks, RB; Modi, D; Takvorian, A; McLaughlin, E; Yue, EW; Wasserman, Z; Bower, M; Wei, M; Rupar, M; Ala, PJ; Reid, BM; Ellis, D; Gonneville, L; Emm
, T; Taylor, N; Yeleswaram, S; Li, Y; Wynn, R; Burn, TC; Hollis, G; Liu, PC; Metcalf, B

> <Institution>
Incyte Corporation

> <Link to Ligand in BindingDB>
http://www.bindingdb.org/bind/chemsearch/marvin/MolStructure.jsp?monomerid=50189640

> <Link to Ligand-Target Pair in BindingDB>
http://www.bindingdb.org/jsp/dbsearch/PrimarySearch_ki.jsp?energyterm=kJ/mole&tag=pol&polymerid=2622&target=Tyrosine-protein+phosphatase+non-receptor+type+1&column=ki&startPg=0&Increment=50&submit=Sea
rch
http://www.bindingdb.org/jsp/dbsearch/PrimarySearch_ki.jsp?energyterm=kJ/mole&tag=r21&monomerid=50189640&enzyme=Tyrosine-protein+phosphatase+non-receptor+type+1&column=ki&startPg=0&Increment=50&submit
=Search

> <PubChem CID of Ligand>
91936142

> <PubChem SID of Ligand>
104073161

> <ChEMBL ID of Ligand>
CHEMBL377989

> <ZINC ID of Ligand>
ZINC14210463

> <Number of Protein Chains in Target (bigger than 1 implies a multichain complex)>
1

> <BindingDB Target Chain Sequence>
MEMEKEFEQIDKSGSWAAIYQDIRHEASDFPCRVAKLPKNKNRNRYRDVSPFDHSRIKLHQEDNDYINASLIKMEEAQRSYILTQGPLPNTCGHFWEMVWEQKSRGVVMLNRVMEKGSLKCAQYWPQKEEKEMIFEDTNLKLTLISEDIKSYYTVRQLELENLTTQETREILHFHYTTWPDFGVPESPASFLNFLFKVRE
SGSLSPEHGPVVVHCSAGIGRSGTFCLADTCLLLMDKRKDPSSVDIKKVLLEMRKFRMGLIQTADQLRFSYLAVIEGAKFIMGDSSVQDQWKELSHEDLEPPPEHIPPPPRPPKRILEPHNGKCREFFPNHQWVKEETQEDKDCPIKEEKGSPLNAAPYGIESMSQDTEVRSRVVGGSLRGAQAASPAKGEPSLPEKDED
HALSYWKPFLVNMCVATVLTAGAYLCYRFLFNSNT

> <PDB ID(s) of Target Chain>
1BZJ,1G7G,1GFY,1JF7,1KAK,1KAV,1LQF,1NL9,1NNY,1NO6,1NZ7,1OEM,1OEO,1OES,1OET,1OEU,1OEV,1ONY,1ONZ,1PH0,1PXH,1PYN,1Q1M,1Q6J,1Q6M,1Q6N,1Q6P,1Q6S,1Q6T,1QXK,1SUG,1T48,1T49,1T4J,1WAX,1XBO,2AZR,2B07,2BGD,2BGE,
2CM2,2CM3,2CM7,2CM8,2CMA,2CMB,2CMC,2CNE,2CNF,2CNG,2CNH,2CNI,2F6T,2F6V,2F6W,2F6Y,2F6Z,2F70,2F71,2FJN,2H4G,2H4K,2HB1,2HNP,2HNQ,2QBP,2QBQ,2QBR,2QBS,2VEU,2VEV,2VEW,2VEX,2VEY,2ZMM,2ZN7,3A5J,3CWE,3D9C,3EAX,
3EB1,3EU0,3I7Z,3I80,3SME,4BJO,4I8N,4QBW,4Y14,5K9V,5K9W,5KA0,5KA1,5T19,6B90,6NTP,6W30,7KEY,7KLX,7LFO,7MN9,7MNA,8DU7,8G65,8G67,8G68,8G69,8G6A,8SKL

> <UniProt (SwissProt) Recommended Name of Target Chain>
Tyrosine-protein phosphatase non-receptor type 1

> <UniProt (SwissProt) Entry Name of Target Chain>
PTN1_HUMAN

> <UniProt (SwissProt) Primary ID of Target Chain>
P18031

> <UniProt (SwissProt) Secondary ID(s) of Target Chain>
Q5TGD8 Q9BQV9 Q9NQQ4

$$$$
Molecule
  SciTegic10242319433D

 63 66  0  0  0  0            999 V2000
    0.8401   -2.5470   -0.1319 S   0  0
    8.9736   -5.1879    0.6321 C   0  0
    9.4192   -6.6160   -0.1207 P   0  0
    7.5515   -4.6739    0.2361 C   0  0
    2.2431   -3.6501    0.1613 N   0  0
   -4.3706   -9.8064    0.0066 N   0  0
   -3.0612   -7.9765    0.1102 C   0  0
   -3.2137   -9.4119   -0.0480 N   0  0
    7.3057   -3.3175   -0.3734 C   0  0
   -5.3410   -8.5311    0.2452 S   0  0
    1.0211   -0.7758   -0.0448 C   0  0
   -4.2271   -7.3212    0.2894 C   0  0
    6.4880   -5.4312    0.5216 C   0  0
    0.2653   -2.8457   -1.5030 O   0  0
   -0.2317   -2.7815    0.9148 O   0  0
    3.4753   -3.1242   -0.5696 C   0  0
   -1.7988   -7.2709    0.0576 C   0  0
   10.6579   -6.9891    0.3661 O   0  0
    1.9737   -5.0956   -0.3498 C   0  0
    2.1088    5.4898    0.0082 C   0  0
    6.0563   -2.9139   -0.6089 C   0  0
    8.9352   -5.4894    1.9740 F   0  0
    9.9509   -4.2614    0.3931 F   0  0
    4.8947   -3.7457   -0.2895 C   0  0
    9.5234   -6.4076   -1.6511 O   0  0
    8.4048   -7.7452    0.1849 O   0  0
    0.9801    5.9928   -0.0435 O   0  0
   -0.1200   -0.0892   -0.0731 C   0  0
    2.2994   -0.0544    0.0252 C   0  0
   -0.6495   -7.9395   -0.1705 C   0  0
   -1.7662   -5.8518    0.2186 C   0  0
    8.7112   -2.1013   -0.8151 Br  0  0
    0.9616    3.4200    0.0239 O   0  0
    5.1081   -4.9519    0.2496 C   0  0
    0.6364   -5.8640   -0.1246 C   0  0
    2.2601    4.0000    0.0591 C   0  0
    1.0116    2.0240    0.0138 C   0  0
    3.2340    6.3042    0.0072 O   0  0
   -0.6237   -5.1946    0.1362 C   0  0
    0.6184   -7.1876   -0.2756 C   0  0
   -0.1311    1.3543   -0.0397 C   0  0
    2.2960    1.2830    0.0507 C   0  0
   -4.3908   -6.2526    0.4290 H   0  0
    6.6354   -6.4176    0.9614 H   0  0
    3.2839   -3.2500   -1.6353 H   0  0
    3.5476   -2.0620   -0.3359 H   0  0
    2.1146   -5.0582   -1.4300 H   0  0
    2.7501   -5.7166    0.0971 H   0  0
    5.8949   -1.9321   -1.0541 H   0  0
    8.5929   -6.0985   -2.0269 H   0  0
    8.3651   -7.9097    1.2212 H   0  0
   -1.0658   -0.6286   -0.1226 H   0  0
    3.2405   -0.6034    0.0561 H   0  0
   -0.6559   -9.0243   -0.2762 H   0  0
   -2.6909   -5.3076    0.4108 H   0  0
    4.2589   -5.5907    0.4923 H   0  0
    2.8399    3.6586   -0.7985 H   0  0
    2.7679    3.7120    0.9796 H   0  0
    3.7888    6.1364    0.8827 H   0  0
   -0.6277   -4.1127    0.2687 H   0  0
    1.5472   -7.7207   -0.4784 H   0  0
   -1.0785    1.8930   -0.0586 H   0  0
    3.2382    1.8289    0.0985 H   0  0
  2  4  1  0
  3  2  1  0
  4 13  2  0
  5  1  1  0
  6  8  2  0
  7 17  1  0
  8  7  1  0
  9 21  2  0
 10 12  1  0
 11  1  1  0
 12  7  2  0
 13 34  1  0
 14  1  2  0
 15  1  2  0
 16  5  1  0
 17 30  2  0
 18  3  2  0
 19  5  1  0
 20 36  1  0
 21 24  1  0
 22  2  1  0
 23  2  1  0
 24 16  1  0
 25  3  1  0
 26  3  1  0
 27 20  2  0
 28 11  2  0
 29 11  1  0
 30 40  1  0
 31 39  2  0
 32  9  1  0
 33 37  1  0
 34 24  2  0
 35 19  1  0
 36 33  1  0
 37 42  1  0
 38 20  1  0
 39 35  1  0
 40 35  2  0
 41 28  1  0
 42 29  2  0
 41 37  2  0
 31 17  1  0
  9  4  1  0
 10  6  1  0
 12 43  1  0
 13 44  1  0
 16 45  1  0
 16 46  1  0
 19 47  1  0
 19 48  1  0
 21 49  1  0
 25 50  1  0
 26 51  1  0
 28 52  1  0
 29 53  1  0
 30 54  1  0
 31 55  1  0
 34 56  1  0
 36 57  1  0
 36 58  1  0
 38 59  1  0
 39 60  1  0
 40 61  1  0
 41 62  1  0
 42 63  1  0
M  END
> <Name>
Molecule

> <Clean Energy>
64.9175

> <From>
www.bindingDB.org

> <BindingDB Reactant_set_id>
50315591

> <Ligand InChI>
InChI=1S/C25H21BrF2N3O8PS2/c26-22-11-17(3-10-21(22)25(27,28)40(34,35)36)13-31(12-16-1-4-18(5-2-16)23-15-41-30-29-23)42(37,38)20-8-6-19(7-9-20)39-14-24(32)33/h1-11,15H,12-14H2,(H,32,33)(H2,34,35,36)

> <Ligand InChI Key>
VYKLYBIUABMCLF-UHFFFAOYSA-N

> <BindingDB MonomerID>
50171096

> <BindingDB Ligand Name>
CHEMBL371929::{4-[[3-Bromo-4-(difluoro-phosphono-methyl)-benzyl]-(4-[1,2,3]thiadiazol-4-yl-benzyl)-sulfamoyl]-phenoxy}-acetic acid

> <Target Name>
Tyrosine-protein phosphatase non-receptor type 1

> <Target Source Organism According to Curator or DataSource>
Homo sapiens

> <IC50 (nM)>
35

> <Curation/DataSource>
ChEMBL

> <Article DOI>
10.1016/j.bmcl.2005.06.061

> <BindingDB Entry DOI>
10.7270/Q2M61JSK

> <PMID>
16046123

> <Authors>
Holmes, CP; Li, X; Pan, Y; Xu, C; Bhandari, A; Moody, CM; Miguel, JA; Ferla, SW; De Francisco, MN; Frederick, BT; Zhou, S; Macher, N; Jang, L; Irvine, JD; Grove, JR

> <Institution>
Affymax, Inc.

> <Link to Ligand in BindingDB>
http://www.bindingdb.org/bind/chemsearch/marvin/MolStructure.jsp?monomerid=50171096

> <Link to Ligand-Target Pair in BindingDB>
http://www.bindingdb.org/jsp/dbsearch/PrimarySearch_ki.jsp?energyterm=kJ/mole&tag=pol&polymerid=2622&target=Tyrosine-protein+phosphatase+non-receptor+type+1&column=ki&startPg=0&Increment=50&submit=Sea
rch
http://www.bindingdb.org/jsp/dbsearch/PrimarySearch_ki.jsp?energyterm=kJ/mole&tag=r21&monomerid=50171096&enzyme=Tyrosine-protein+phosphatase+non-receptor+type+1&column=ki&startPg=0&Increment=50&submit
=Search

> <PubChem CID of Ligand>
44404294

> <PubChem SID of Ligand>
104057393

> <ChEMBL ID of Ligand>
CHEMBL371929

> <ZINC ID of Ligand>
ZINC28527620

> <Number of Protein Chains in Target (bigger than 1 implies a multichain complex)>
1

> <BindingDB Target Chain Sequence>
MEMEKEFEQIDKSGSWAAIYQDIRHEASDFPCRVAKLPKNKNRNRYRDVSPFDHSRIKLHQEDNDYINASLIKMEEAQRSYILTQGPLPNTCGHFWEMVWEQKSRGVVMLNRVMEKGSLKCAQYWPQKEEKEMIFEDTNLKLTLISEDIKSYYTVRQLELENLTTQETREILHFHYTTWPDFGVPESPASFLNFLFKVRE
SGSLSPEHGPVVVHCSAGIGRSGTFCLADTCLLLMDKRKDPSSVDIKKVLLEMRKFRMGLIQTADQLRFSYLAVIEGAKFIMGDSSVQDQWKELSHEDLEPPPEHIPPPPRPPKRILEPHNGKCREFFPNHQWVKEETQEDKDCPIKEEKGSPLNAAPYGIESMSQDTEVRSRVVGGSLRGAQAASPAKGEPSLPEKDED
HALSYWKPFLVNMCVATVLTAGAYLCYRFLFNSNT

> <PDB ID(s) of Target Chain>
1BZJ,1G7G,1GFY,1JF7,1KAK,1KAV,1LQF,1NL9,1NNY,1NO6,1NZ7,1OEM,1OEO,1OES,1OET,1OEU,1OEV,1ONY,1ONZ,1PH0,1PXH,1PYN,1Q1M,1Q6J,1Q6M,1Q6N,1Q6P,1Q6S,1Q6T,1QXK,1SUG,1T48,1T49,1T4J,1WAX,1XBO,2AZR,2B07,2BGD,2BGE,
2CM2,2CM3,2CM7,2CM8,2CMA,2CMB,2CMC,2CNE,2CNF,2CNG,2CNH,2CNI,2F6T,2F6V,2F6W,2F6Y,2F6Z,2F70,2F71,2FJN,2H4G,2H4K,2HB1,2HNP,2HNQ,2QBP,2QBQ,2QBR,2QBS,2VEU,2VEV,2VEW,2VEX,2VEY,2ZMM,2ZN7,3A5J,3CWE,3D9C,3EAX,
3EB1,3EU0,3I7Z,3I80,3SME,4BJO,4I8N,4QBW,4Y14,5K9V,5K9W,5KA0,5KA1,5T19,6B90,6NTP,6W30,7KEY,7KLX,7LFO,7MN9,7MNA,8DU7,8G65,8G67,8G68,8G69,8G6A,8SKL

> <UniProt (SwissProt) Recommended Name of Target Chain>
Tyrosine-protein phosphatase non-receptor type 1

> <UniProt (SwissProt) Entry Name of Target Chain>
PTN1_HUMAN

> <UniProt (SwissProt) Primary ID of Target Chain>
P18031

> <UniProt (SwissProt) Secondary ID(s) of Target Chain>
Q5TGD8 Q9BQV9 Q9NQQ4

$$$$
Molecule
  SciTegic10242319433D

 83 86  0  0  0  0            999 V2000
    4.2034  -19.9168   -0.0555 N   0  0
    4.1579  -21.3529   -0.0572 C   0  0
    5.4884  -22.0057    0.2683 C   0  0
    6.6556  -21.3571    0.2354 N   0  0
    6.7998  -19.9917   -0.1588 C   0  0  1  0  0  0
    5.4652  -19.2273   -0.0481 C   0  0
    7.9982  -19.2445    0.5797 C   0  0
    9.4016  -19.9425    0.4664 C   0  0
    9.5651  -21.3602    0.4794 C   0  0
   10.7809  -21.9120    0.3877 C   0  0
   12.0560  -21.1926    0.2209 C   0  0
   11.8821  -19.8099    0.2565 C   0  0
   10.5036  -19.2139    0.3868 C   0  0
   12.9381  -18.7415    0.1643 C   0  0
   12.3457  -17.3183    0.2126 C   0  0
   13.4454  -22.1309    0.0530 N   0  0
   13.3984  -23.7571    0.1211 C   0  0
   14.8989  -21.4406   -0.1193 C   0  0
   16.3248  -22.0170   -0.2172 C   0  0
   17.3669  -21.0977   -0.3403 O   0  0
   14.9893  -20.2346   -0.1868 O   0  0
   16.6314  -23.2068   -0.1756 O   0  0
   12.2488  -24.8260   -0.2226 C   0  0
   12.4741  -26.1239    0.0021 C   0  0
   13.7132  -26.6214    0.5226 C   0  0
   14.6859  -25.7728    0.7897 C   0  0
   14.4960  -24.3383    0.5983 C   0  0
   10.9442  -24.6262   -0.8662 C   0  0
   10.6919  -23.5487   -1.6900 O   0  0
   10.1103  -25.5377   -0.7941 O   0  0
    5.4771  -17.9909   -0.0268 O   0  0
    5.4942  -23.2007    0.5789 O   0  0
    2.9244  -19.1475   -0.0405 C   0  0
    1.6212  -20.0714   -0.0177 C   0  0
    0.3011  -19.1928    0.0034 C   0  0
   -1.0388  -20.0490    0.0155 C   0  0
   -2.2042  -19.1398    0.0215 O   0  0
   -3.4738  -19.7769    0.0133 C   0  0
   -4.6682  -19.1063    0.0079 C   0  0
   -5.9271  -19.9443    0.0041 C   0  0
   -5.8777  -21.2710   -0.0080 C   0  0
   -4.6112  -21.9531   -0.0081 C   0  0
   -3.4797  -21.2562   -0.0023 C   0  0
   -4.9527  -17.5469    0.0241 C   0  0
   -4.0767  -16.3781   -0.0217 O   0  0
   -6.1470  -17.2366    0.0723 O   0  0
   -2.6744  -16.4717   -0.1057 C   0  0
   -7.1857  -19.3400    0.0020 O   0  0
    3.4264  -21.6748    0.6840 H   0  0
    3.8443  -21.6860   -1.0465 H   0  0
    7.5363  -21.8930    0.5218 H   0  0
    7.0560  -20.0058   -1.2182 H   0  0
    8.0847  -18.2452    0.1531 H   0  0
    7.7455  -19.1680    1.6373 H   0  0
    8.6883  -22.0020    0.5652 H   0  0
   10.8330  -22.9994    0.4416 H   0  0
   10.4098  -18.1284    0.4170 H   0  0
   13.6291  -18.8606    0.9988 H   0  0
   13.4774  -18.8636   -0.7750 H   0  0
   13.1505  -16.5866    0.1425 H   0  0
   11.8095  -17.1790    1.1513 H   0  0
   11.6578  -17.1820   -0.6219 H   0  0
   17.2305  -20.5278   -1.2117 H   0  0
   11.6797  -26.8363   -0.2204 H   0  0
   13.8498  -27.6889    0.6954 H   0  0
   15.6418  -26.1461    1.1573 H   0  0
   15.3260  -23.6861    0.8700 H   0  0
   10.8259  -22.6571   -1.1518 H   0  0
    2.9135  -18.5149    0.8471 H   0  0
    2.8879  -18.5228   -0.9329 H   0  0
    1.6157  -20.7013   -0.9072 H   0  0
    1.6454  -20.6994    0.8728 H   0  0
    0.3180  -18.5685    0.8968 H   0  0
    0.2959  -18.5590   -0.8834 H   0  0
   -1.0748  -20.6799   -0.8726 H   0  0
   -1.0618  -20.6750    0.9076 H   0  0
   -6.8030  -21.8472   -0.0180 H   0  0
   -4.5795  -23.0426   -0.0130 H   0  0
   -2.5291  -21.7896   -0.0091 H   0  0
   -2.2435  -15.4707   -0.1259 H   0  0
   -2.3991  -17.0036   -1.0164 H   0  0
   -2.2934  -17.0133    0.7602 H   0  0
   -7.2894  -18.7431    0.8596 H   0  0
  5  4  1  0
 23 24  2  0
 11 12  2  0
 24 25  1  0
  5  6  1  0
 25 26  2  0
 12 13  1  0
 26 27  1  0
 27 17  2  0
 13  8  2  0
 23 28  1  0
 28 29  1  0
 12 14  1  0
 28 30  2  0
  5  7  1  0
  6 31  2  0
 14 15  1  0
  3 32  2  0
  1  2  1  0
  1 33  1  0
 11 16  1  0
 33 34  1  0
  7  8  1  0
 34 35  1  0
 16 17  1  0
 35 36  1  0
  1  6  1  0
 36 37  1  0
 16 18  1  0
 37 38  1  0
  8  9  1  0
 38 39  2  0
 18 19  1  0
 39 40  1  0
  2  3  1  0
 40 41  2  0
 19 20  1  0
 41 42  1  0
  9 10  2  0
 42 43  2  0
 43 38  1  0
 18 21  2  0
  3  4  1  0
 19 22  2  0
 44 45  1  0
 44 46  2  0
 39 44  1  0
 10 11  1  0
 45 47  1  0
 17 23  1  0
 40 48  1  0
  2 49  1  0
  2 50  1  0
  4 51  1  0
  5 52  1  0
  7 53  1  0
  7 54  1  0
  9 55  1  0
 10 56  1  0
 13 57  1  0
 14 58  1  0
 14 59  1  0
 15 60  1  0
 15 61  1  0
 15 62  1  0
 20 63  1  0
 24 64  1  0
 25 65  1  0
 26 66  1  0
 27 67  1  0
 29 68  1  0
 33 69  1  0
 33 70  1  0
 34 71  1  0
 34 72  1  0
 35 73  1  0
 35 74  1  0
 36 75  1  0
 36 76  1  0
 41 77  1  0
 42 78  1  0
 43 79  1  0
 47 80  1  0
 47 81  1  0
 47 82  1  0
 48 83  1  0
M  END
> <Name>
Molecule

> <Clean Energy>
113.924

> <From>
www.bindingDB.org

> <BindingDB Reactant_set_id>
50597569

> <Ligand InChI>
InChI=1S/C34H35N3O11/c1-3-21-17-20(13-14-24(21)37(31(41)33(44)45)25-10-5-4-9-22(25)32(42)43)18-23-30(40)36(19-28(39)35-23)15-6-7-16-48-27-12-8-11-26(38)29(27)34(46)47-2/h4-5,8-14,17,23,38H,3,6-7,15-16
,18-19H2,1-2H3,(H,35,39)(H,42,43)(H,44,45)/t23-/m1/s1

> <Ligand InChI Key>
BKPFVUCQPXAMRL-HSZRJFAPSA-N

> <BindingDB MonomerID>
50326165

> <BindingDB Ligand Name>
CHEMBL1241315::oxalylaminobenzoic acid

> <Target Name>
Tyrosine-protein phosphatase non-receptor type 1

> <Target Source Organism According to Curator or DataSource>
Homo sapiens

> <IC50 (nM)>
38

> <Curation/DataSource>
ChEMBL

> <Article DOI>
10.1016/j.ejmech.2010.05.020

> <BindingDB Entry DOI>
10.7270/Q24Q7V6S

> <PMID>
20627471

> <Authors>
Lakshminarayana, N; Prasad, YR; Gharat, L; Thomas, A; Narayanan, S; Raghuram, A; Srinivasan, CV; Gopalan, B

> <Institution>
Glenmark Research Center

> <Link to Ligand in BindingDB>
http://www.bindingdb.org/bind/chemsearch/marvin/MolStructure.jsp?monomerid=50326165

> <Link to Ligand-Target Pair in BindingDB>
http://www.bindingdb.org/jsp/dbsearch/PrimarySearch_ki.jsp?energyterm=kJ/mole&tag=pol&polymerid=2622&target=Tyrosine-protein+phosphatase+non-receptor+type+1&column=ki&startPg=0&Increment=50&submit=Sea
rch
http://www.bindingdb.org/jsp/dbsearch/PrimarySearch_ki.jsp?energyterm=kJ/mole&tag=r21&monomerid=50326165&enzyme=Tyrosine-protein+phosphatase+non-receptor+type+1&column=ki&startPg=0&Increment=50&submit
=Search

> <PubChem CID of Ligand>
52946645

> <PubChem SID of Ligand>
123105280

> <ChEMBL ID of Ligand>
CHEMBL1241315

> <ZINC ID of Ligand>
ZINC72171822

> <Number of Protein Chains in Target (bigger than 1 implies a multichain complex)>
1

> <BindingDB Target Chain Sequence>
MEMEKEFEQIDKSGSWAAIYQDIRHEASDFPCRVAKLPKNKNRNRYRDVSPFDHSRIKLHQEDNDYINASLIKMEEAQRSYILTQGPLPNTCGHFWEMVWEQKSRGVVMLNRVMEKGSLKCAQYWPQKEEKEMIFEDTNLKLTLISEDIKSYYTVRQLELENLTTQETREILHFHYTTWPDFGVPESPASFLNFLFKVRE
SGSLSPEHGPVVVHCSAGIGRSGTFCLADTCLLLMDKRKDPSSVDIKKVLLEMRKFRMGLIQTADQLRFSYLAVIEGAKFIMGDSSVQDQWKELSHEDLEPPPEHIPPPPRPPKRILEPHNGKCREFFPNHQWVKEETQEDKDCPIKEEKGSPLNAAPYGIESMSQDTEVRSRVVGGSLRGAQAASPAKGEPSLPEKDED
HALSYWKPFLVNMCVATVLTAGAYLCYRFLFNSNT

> <PDB ID(s) of Target Chain>
1BZJ,1G7G,1GFY,1JF7,1KAK,1KAV,1LQF,1NL9,1NNY,1NO6,1NZ7,1OEM,1OEO,1OES,1OET,1OEU,1OEV,1ONY,1ONZ,1PH0,1PXH,1PYN,1Q1M,1Q6J,1Q6M,1Q6N,1Q6P,1Q6S,1Q6T,1QXK,1SUG,1T48,1T49,1T4J,1WAX,1XBO,2AZR,2B07,2BGD,2BGE,
2CM2,2CM3,2CM7,2CM8,2CMA,2CMB,2CMC,2CNE,2CNF,2CNG,2CNH,2CNI,2F6T,2F6V,2F6W,2F6Y,2F6Z,2F70,2F71,2FJN,2H4G,2H4K,2HB1,2HNP,2HNQ,2QBP,2QBQ,2QBR,2QBS,2VEU,2VEV,2VEW,2VEX,2VEY,2ZMM,2ZN7,3A5J,3CWE,3D9C,3EAX,
3EB1,3EU0,3I7Z,3I80,3SME,4BJO,4I8N,4QBW,4Y14,5K9V,5K9W,5KA0,5KA1,5T19,6B90,6NTP,6W30,7KEY,7KLX,7LFO,7MN9,7MNA,8DU7,8G65,8G67,8G68,8G69,8G6A,8SKL

> <UniProt (SwissProt) Recommended Name of Target Chain>
Tyrosine-protein phosphatase non-receptor type 1

> <UniProt (SwissProt) Entry Name of Target Chain>
PTN1_HUMAN

> <UniProt (SwissProt) Primary ID of Target Chain>
P18031

> <UniProt (SwissProt) Secondary ID(s) of Target Chain>
Q5TGD8 Q9BQV9 Q9NQQ4

$$$$
Molecule
  SciTegic10242319433D

 68 72  0  0  0  0            999 V2000
   -2.2176  -21.4657   -1.1543 O   0  0
   -2.0537  -22.3276    0.0832 S   0  0
   -2.0257  -21.4560    1.3242 O   0  0
   -0.5738  -24.1339   -1.1261 F   0  0
   -0.5161  -23.3028   -0.0237 C   0  0
   -0.4320  -24.1384    1.0698 F   0  0
    6.8925  -23.8954   -0.1939 C   0  0
    5.6197  -22.8688   -0.2070 C   0  0
    5.7939  -21.5457   -0.2099 C   0  0
    4.5832  -20.6546   -0.1909 C   0  0
    4.2994  -23.3196   -0.1614 N   0  0
    3.2566  -22.5977   -0.1461 C   0  0
    3.3662  -21.2024   -0.1626 C   0  0
    2.1257  -20.4076   -0.1431 C   0  0
    0.9257  -21.0086   -0.1098 C   0  0
    0.8187  -22.5119   -0.0894 C   0  0
    1.9407  -23.2333   -0.1065 C   0  0
   -0.1671  -20.2438   -0.0923 F   0  0
   -3.4084  -23.4189    0.1940 N   0  0
    4.3779  -25.3353   -0.6984 O   0  0
    5.2144  -25.8647    0.4330 S   0  0
    5.0722  -25.0516    1.7072 O   0  0
    6.7235  -25.4741   -0.3946 N   0  0
    8.0482  -26.0470    0.0883 C   0  0
    4.0078  -27.1280    0.3979 C   0  0
    4.1051  -28.4499    0.3247 C   0  0
    2.8250  -29.2265    0.2162 C   0  0
    1.6427  -28.5836    0.1768 C   0  0
    1.5916  -27.1762    0.2640 C   0  0
    2.7051  -26.4989    0.3750 C   0  0
    8.2564  -27.5449   -0.0109 C   0  0
    9.4740  -28.0619    0.1821 C   0  0
    9.6723  -29.5237    0.1398 C   0  0
    8.6249  -30.3176   -0.0790 C   0  0
    7.3192  -29.7380   -0.3030 C   0  0
    7.1576  -28.4203   -0.2786 C   0  0
    8.7542  -31.7687   -0.0716 C   0  0
    9.9122  -32.4095    0.0827 C   0  0
    9.4644  -34.0000    0.0435 S   0  0
    7.8651  -33.8454   -0.1497 N   0  0
    7.5929  -32.6518   -0.2024 N   0  0
    0.4268  -29.2277    0.0543 O   0  0
    0.5489  -30.6212   -0.0284 C   0  0
   -0.8350  -31.1641   -0.1175 C   0  0
   -1.0383  -32.5317   -0.1577 O   0  0
   -1.8000  -30.3894   -0.1346 O   0  0
    7.5612  -23.5591   -0.9863 H   0  0
    7.3785  -23.7631    0.7728 H   0  0
    6.7966  -21.1185   -0.2257 H   0  0
    4.6981  -19.5707   -0.2003 H   0  0
    2.1829  -19.3192   -0.1558 H   0  0
    1.8749  -24.3212   -0.0906 H   0  0
   -3.4394  -24.0393   -0.6773 H   0  0
   -4.3158  -22.8560    0.2630 H   0  0
    8.8378  -25.5713   -0.4936 H   0  0
    8.1553  -25.7742    1.1382 H   0  0
    5.0734  -28.9502    0.3427 H   0  0
    2.8529  -30.3151    0.1692 H   0  0
    0.6329  -26.6581    0.2391 H   0  0
    2.6491  -25.4132    0.4538 H   0  0
   10.3215  -27.4029    0.3709 H   0  0
   10.6651  -29.9494    0.2860 H   0  0
    6.4635  -30.3859   -0.4929 H   0  0
    6.1701  -27.9984   -0.4658 H   0  0
   10.9101  -31.9882    0.2048 H   0  0
    1.1189  -30.8968   -0.9157 H   0  0
    1.0484  -31.0084    0.8597 H   0  0
   -0.5531  -32.9336   -0.9977 H   0  0
 11  8  1  0
  5  4  1  0
 12 13  1  0
  6  5  1  0
 13 14  1  0
  7  8  1  0
 14 15  2  0
 15 16  1  0
  8  9  2  0
 16 17  2  0
 17 12  1  0
  2  1  2  0
 15 18  1  0
 16  5  1  0
  5  2  1  0
  9 10  1  0
  2 19  1  0
 10 13  2  0
  3  2  2  0
 12 11  2  0
 23  7  1  0
 21 20  2  0
 23 21  1  0
 21 25  1  0
 22 21  2  0
 23 24  1  0
 24 31  1  0
 25 26  2  0
 30 25  1  0
 26 27  1  0
 27 28  2  0
 28 29  1  0
 28 42  1  0
 29 30  2  0
 31 32  2  0
 36 31  1  0
 32 33  1  0
 33 34  2  0
 34 35  1  0
 34 37  1  0
 35 36  2  0
 37 38  2  0
 41 37  1  0
 38 39  1  0
 39 40  1  0
 40 41  2  0
 42 43  1  0
 43 44  1  0
 44 45  1  0
 44 46  2  0
  7 47  1  0
  7 48  1  0
  9 49  1  0
 10 50  1  0
 14 51  1  0
 17 52  1  0
 19 53  1  0
 19 54  1  0
 24 55  1  0
 24 56  1  0
 26 57  1  0
 27 58  1  0
 29 59  1  0
 30 60  1  0
 32 61  1  0
 33 62  1  0
 35 63  1  0
 36 64  1  0
 38 65  1  0
 43 66  1  0
 43 67  1  0
 45 68  1  0
M  END
> <Name>
Molecule

> <Clean Energy>
104.668

> <From>
www.bindingDB.org

> <BindingDB Reactant_set_id>
50713202

> <Ligand InChI>
InChI=1S/C28H22F3N5O7S3/c29-24-11-19-5-6-20(33-25(19)12-23(24)28(30,31)46(32,41)42)14-36(13-17-1-3-18(4-2-17)26-16-44-35-34-26)45(39,40)22-9-7-21(8-10-22)43-15-27(37)38/h1-12,16H,13-15H2,(H,37,38)(H2,
32,41,42)

> <Ligand InChI Key>
FRUMGZNRRQRQLG-UHFFFAOYSA-N

> <BindingDB MonomerID>
50362198

> <BindingDB Ligand Name>
CHEMBL1938831

> <Target Name>
Tyrosine-protein phosphatase non-receptor type 1

> <Target Source Organism According to Curator or DataSource>
Homo sapiens

> <IC50 (nM)>
38

> <Curation/DataSource>
ChEMBL

> <Article DOI>
10.1016/j.bmcl.2011.11.122

> <BindingDB Entry DOI>
10.7270/Q2ZS2X05

> <PMID>
22189136

> <Authors>
Patel, D; Jain, M; Shah, SR; Bahekar, R; Jadav, P; Joharapurkar, A; Dhanesha, N; Shaikh, M; Sairam, KV; Kapadnis, P

> <Institution>
M.S. University of Baroda

> <Link to Ligand in BindingDB>
http://www.bindingdb.org/bind/chemsearch/marvin/MolStructure.jsp?monomerid=50362198

> <Link to Ligand-Target Pair in BindingDB>
http://www.bindingdb.org/jsp/dbsearch/PrimarySearch_ki.jsp?energyterm=kJ/mole&tag=pol&polymerid=2622&target=Tyrosine-protein+phosphatase+non-receptor+type+1&column=ki&startPg=0&Increment=50&submit=Sea
rch
http://www.bindingdb.org/jsp/dbsearch/PrimarySearch_ki.jsp?energyterm=kJ/mole&tag=r21&monomerid=50362198&enzyme=Tyrosine-protein+phosphatase+non-receptor+type+1&column=ki&startPg=0&Increment=50&submit
=Search

> <PubChem CID of Ligand>
57394167

> <PubChem SID of Ligand>
136966260

> <ChEMBL ID of Ligand>
CHEMBL1938831

> <ZINC ID of Ligand>
ZINC82157579

> <Number of Protein Chains in Target (bigger than 1 implies a multichain complex)>
1

> <BindingDB Target Chain Sequence>
MEMEKEFEQIDKSGSWAAIYQDIRHEASDFPCRVAKLPKNKNRNRYRDVSPFDHSRIKLHQEDNDYINASLIKMEEAQRSYILTQGPLPNTCGHFWEMVWEQKSRGVVMLNRVMEKGSLKCAQYWPQKEEKEMIFEDTNLKLTLISEDIKSYYTVRQLELENLTTQETREILHFHYTTWPDFGVPESPASFLNFLFKVRE
SGSLSPEHGPVVVHCSAGIGRSGTFCLADTCLLLMDKRKDPSSVDIKKVLLEMRKFRMGLIQTADQLRFSYLAVIEGAKFIMGDSSVQDQWKELSHEDLEPPPEHIPPPPRPPKRILEPHNGKCREFFPNHQWVKEETQEDKDCPIKEEKGSPLNAAPYGIESMSQDTEVRSRVVGGSLRGAQAASPAKGEPSLPEKDED
HALSYWKPFLVNMCVATVLTAGAYLCYRFLFNSNT

> <PDB ID(s) of Target Chain>
1BZJ,1G7G,1GFY,1JF7,1KAK,1KAV,1LQF,1NL9,1NNY,1NO6,1NZ7,1OEM,1OEO,1OES,1OET,1OEU,1OEV,1ONY,1ONZ,1PH0,1PXH,1PYN,1Q1M,1Q6J,1Q6M,1Q6N,1Q6P,1Q6S,1Q6T,1QXK,1SUG,1T48,1T49,1T4J,1WAX,1XBO,2AZR,2B07,2BGD,2BGE,
2CM2,2CM3,2CM7,2CM8,2CMA,2CMB,2CMC,2CNE,2CNF,2CNG,2CNH,2CNI,2F6T,2F6V,2F6W,2F6Y,2F6Z,2F70,2F71,2FJN,2H4G,2H4K,2HB1,2HNP,2HNQ,2QBP,2QBQ,2QBR,2QBS,2VEU,2VEV,2VEW,2VEX,2VEY,2ZMM,2ZN7,3A5J,3CWE,3D9C,3EAX,
3EB1,3EU0,3I7Z,3I80,3SME,4BJO,4I8N,4QBW,4Y14,5K9V,5K9W,5KA0,5KA1,5T19,6B90,6NTP,6W30,7KEY,7KLX,7LFO,7MN9,7MNA,8DU7,8G65,8G67,8G68,8G69,8G6A,8SKL

> <UniProt (SwissProt) Recommended Name of Target Chain>
Tyrosine-protein phosphatase non-receptor type 1

> <UniProt (SwissProt) Entry Name of Target Chain>
PTN1_HUMAN

> <UniProt (SwissProt) Primary ID of Target Chain>
P18031

> <UniProt (SwissProt) Secondary ID(s) of Target Chain>
Q5TGD8 Q9BQV9 Q9NQQ4

$$$$
5
  SciTegic10242319433D

 71 76  0  0  0  0            999 V2000
   -5.5382    2.8204   -0.7944 C   0  0
   -5.1665    2.3564    0.3956 C   0  0
   -3.7497    2.2172    0.7096 C   0  0
   -2.8137    2.5300   -0.1946 C   0  0
   -3.2272    3.0373   -1.5148 C   0  0
   -4.5235    3.1809   -1.7921 C   0  0
   -0.5159    1.8268   -1.0720 C   0  0
    0.8828    1.1326   -0.8237 C   0  0
    0.9656   -0.0514   -1.4186 C   0  0
    2.0567   -0.9472   -1.1966 C   0  0
    3.0522   -0.6407   -0.3833 C   0  0
    3.0492    0.7014    0.3018 C   0  0
    2.0088    1.5484    0.1045 C   0  0
    4.0677   -1.7217   -0.1812 C   0  0
    3.7657   -2.9282   -0.6733 C   0  0
    4.6658   -4.0650   -0.5071 C   0  0
    5.8145   -3.9031    0.1412 C   0  0
    6.1649   -2.5792    0.6879 C   0  0
    5.3334   -1.5390    0.5432 C   0  0
   -1.3298    2.4021    0.1747 C   0  0  2  0  0  0
   -1.1417    1.3269    1.3829 C   0  0
   -1.4464   -0.2288    1.0313 C   0  0
   -2.6010   -0.7207    0.2061 C   0  0
   -2.7248   -2.0187   -0.1111 C   0  0
   -1.7149   -2.9957    0.3388 C   0  0
   -0.6941   -2.5658    1.0797 C   0  0
   -0.5576   -1.1390    1.4416 C   0  0
   -1.7629   -4.4884   -0.0566 C   0  0
   -0.8992   -5.1923    0.7560 F   0  0
   -1.3257   -4.5994   -1.3626 F   0  0
   -3.2899   -5.1713   -0.0112 P   0  0
   -3.1924   -6.4978   -0.3878 O   0  0
   -4.2495   -4.4483   -0.9889 O   0  0
   -3.8530   -5.0949    1.4277 O   0  0
   -0.7775    3.8364    0.4531 N   0  0
    0.5257    4.2006    0.1902 N   0  0
    0.6558    5.4310    0.0841 N   0  0
   -0.5793    6.0560    0.2733 C   0  0
   -1.5112    5.0949    0.5465 C   0  0
   -3.1836    6.8353    0.7373 C   0  0
   -2.7867    5.4075    0.7858 C   0  0
   -0.8678    7.3581    0.2004 C   0  0
   -2.2674    7.7669    0.4463 C   0  0
   -6.5968    2.9330   -1.0287 H   0  0
   -5.9194    2.0808    1.1340 H   0  0
   -3.4490    1.8541    1.6924 H   0  0
   -2.4762    3.2943   -2.2618 H   0  0
   -4.8311    3.5675   -2.7637 H   0  0
   -1.1557    1.0900   -1.5578 H   0  0
   -0.3414    2.6613   -1.7512 H   0  0
    0.1713   -0.3515   -2.1022 H   0  0
    2.0681   -1.9079   -1.7113 H   0  0
    3.8765    0.9891    0.9506 H   0  0
    1.9817    2.5156    0.6064 H   0  0
    2.8270   -3.0654   -1.2101 H   0  0
    4.3974   -5.0407   -0.9121 H   0  0
    6.4948   -4.7452    0.2682 H   0  0
    7.1096   -2.4458    1.2149 H   0  0
    5.5933   -0.5655    0.9590 H   0  0
   -0.1085    1.3916    1.7241 H   0  0
   -1.8111    1.6194    2.1919 H   0  0
   -3.3515   -0.0107   -0.1413 H   0  0
   -3.5760   -2.3530   -0.7043 H   0  0
    0.0539   -3.2794    1.4253 H   0  0
    0.2855   -0.8226    2.0558 H   0  0
   -4.3252   -3.4358   -0.7211 H   0  0
   -3.2186   -5.6181    2.0806 H   0  0
   -4.2152    7.1246    0.9375 H   0  0
   -3.5186    4.6319    1.0113 H   0  0
   -0.0981    8.0939   -0.0323 H   0  0
   -2.5507    8.8180    0.3911 H   0  0
  1  2  2  0
  1  6  1  0
  2  3  1  0
  3  4  2  0
  4  5  1  0
  5  6  2  0
  4 20  1  0
 20  7  1  0
  7  8  1  0
  8  9  2  0
  8 13  1  0
  9 10  1  0
 10 11  2  0
 11 12  1  0
 12 13  2  0
 11 14  1  0
 14 15  2  0
 14 19  1  0
 15 16  1  0
 16 17  2  0
 17 18  1  0
 18 19  2  0
 20 35  1  0
 20 21  1  0
 21 22  1  0
 27 22  2  0
 23 22  1  0
 23 24  2  0
 24 25  1  0
 25 26  2  0
 26 27  1  0
 25 28  1  0
 28 29  1  0
 28 31  1  0
 28 30  1  0
 31 33  1  0
 31 32  2  0
 31 34  1  0
 39 35  1  0
 35 36  1  0
 38 37  1  0
 36 37  2  0
 38 42  2  0
 38 39  1  0
 41 39  2  0
 40 41  1  0
 40 43  2  0
 42 43  1  0
  1 44  1  0
  2 45  1  0
  3 46  1  0
  5 47  1  0
  6 48  1  0
  7 49  1  0
  7 50  1  0
  9 51  1  0
 10 52  1  0
 12 53  1  0
 13 54  1  0
 15 55  1  0
 16 56  1  0
 17 57  1  0
 18 58  1  0
 19 59  1  0
 21 60  1  0
 21 61  1  0
 23 62  1  0
 24 63  1  0
 26 64  1  0
 27 65  1  0
 33 66  1  0
 34 67  1  0
 40 68  1  0
 41 69  1  0
 42 70  1  0
 43 71  1  0
M  END
> <Name>
5

> <Clean Energy>
93.9802

> <From>
www.bindingDB.org

> <BindingDB Reactant_set_id>
50261779

> <Ligand InChI>
InChI=1S/C34H28F2N3O3P/c35-34(36,43(40,41)42)30-21-17-26(18-22-30)24-33(29-11-5-2-6-12-29,39-32-14-8-7-13-31(32)37-38-39)23-25-15-19-28(20-16-25)27-9-3-1-4-10-27/h1-22H,23-24H2,(H2,40,41,42)

> <Ligand InChI Key>
UTZGYWMRZLQRNA-UHFFFAOYSA-N

> <BindingDB MonomerID>
13598

> <BindingDB Ligand Name>
({4-[2-(1H-1,2,3-benzotriazol-1-yl)-2-phenyl-3-(4-phenylphenyl)propyl]phenyl}difluoromethyl)phosphonic acid::Aryldifluoromethyl-Phosphonic Acid Inhibitor 5::CHEMBL267759

> <Target Name>
Tyrosine-protein phosphatase non-receptor type 1

> <Target Source Organism According to Curator or DataSource>
Homo sapiens

> <IC50 (nM)>
38

> <Curation/DataSource>
ChEMBL

> <Article DOI>
10.1016/j.bmcl.2003.11.076

> <BindingDB Entry DOI>
10.7270/Q24M9404

> <PMID>
15013020

> <Authors>
Lau, CK; Bayly, CI; Gauthier, JY; Li, CS; Therien, M; Asante-Appiah, E; Cromlish, W; Boie, Y; Forghani, F; Desmarais, S; Wang, Q; Skorey, K; Waddleton, D; Payette, P; Ramachandran, C; Kennedy, BP; Sca
pin, G

> <Institution>
Merck Frosst Centre for Therapeutic Research

> <Link to Ligand in BindingDB>
http://www.bindingdb.org/bind/chemsearch/marvin/MolStructure.jsp?monomerid=13598

> <Link to Ligand-Target Pair in BindingDB>
http://www.bindingdb.org/jsp/dbsearch/PrimarySearch_ki.jsp?energyterm=kJ/mole&tag=pol&polymerid=2622&target=Tyrosine-protein+phosphatase+non-receptor+type+1&column=ki&startPg=0&Increment=50&submit=Sea
rch
http://www.bindingdb.org/jsp/dbsearch/PrimarySearch_ki.jsp?energyterm=kJ/mole&tag=r21&monomerid=13598&enzyme=Tyrosine-protein+phosphatase+non-receptor+type+1&column=ki&startPg=0&Increment=50&submit=Se
arch

> <PubChem CID of Ligand>
9873352

> <PubChem SID of Ligand>
46513993

> <ChEMBL ID of Ligand>
CHEMBL267759

> <ZINC ID of Ligand>
ZINC14953448

> <Number of Protein Chains in Target (bigger than 1 implies a multichain complex)>
1

> <BindingDB Target Chain Sequence>
MEMEKEFEQIDKSGSWAAIYQDIRHEASDFPCRVAKLPKNKNRNRYRDVSPFDHSRIKLHQEDNDYINASLIKMEEAQRSYILTQGPLPNTCGHFWEMVWEQKSRGVVMLNRVMEKGSLKCAQYWPQKEEKEMIFEDTNLKLTLISEDIKSYYTVRQLELENLTTQETREILHFHYTTWPDFGVPESPASFLNFLFKVRE
SGSLSPEHGPVVVHCSAGIGRSGTFCLADTCLLLMDKRKDPSSVDIKKVLLEMRKFRMGLIQTADQLRFSYLAVIEGAKFIMGDSSVQDQWKELSHEDLEPPPEHIPPPPRPPKRILEPHNGKCREFFPNHQWVKEETQEDKDCPIKEEKGSPLNAAPYGIESMSQDTEVRSRVVGGSLRGAQAASPAKGEPSLPEKDED
HALSYWKPFLVNMCVATVLTAGAYLCYRFLFNSNT

> <PDB ID(s) of Target Chain>
1BZJ,1G7G,1GFY,1JF7,1KAK,1KAV,1LQF,1NL9,1NNY,1NO6,1NZ7,1OEM,1OEO,1OES,1OET,1OEU,1OEV,1ONY,1ONZ,1PH0,1PXH,1PYN,1Q1M,1Q6J,1Q6M,1Q6N,1Q6P,1Q6S,1Q6T,1QXK,1SUG,1T48,1T49,1T4J,1WAX,1XBO,2AZR,2B07,2BGD,2BGE,
2CM2,2CM3,2CM7,2CM8,2CMA,2CMB,2CMC,2CNE,2CNF,2CNG,2CNH,2CNI,2F6T,2F6V,2F6W,2F6Y,2F6Z,2F70,2F71,2FJN,2H4G,2H4K,2HB1,2HNP,2HNQ,2QBP,2QBQ,2QBR,2QBS,2VEU,2VEV,2VEW,2VEX,2VEY,2ZMM,2ZN7,3A5J,3CWE,3D9C,3EAX,
3EB1,3EU0,3I7Z,3I80,3SME,4BJO,4I8N,4QBW,4Y14,5K9V,5K9W,5KA0,5KA1,5T19,6B90,6NTP,6W30,7KEY,7KLX,7LFO,7MN9,7MNA,8DU7,8G65,8G67,8G68,8G69,8G6A,8SKL

> <UniProt (SwissProt) Recommended Name of Target Chain>
Tyrosine-protein phosphatase non-receptor type 1

> <UniProt (SwissProt) Entry Name of Target Chain>
PTN1_HUMAN

> <UniProt (SwissProt) Primary ID of Target Chain>
P18031

> <UniProt (SwissProt) Secondary ID(s) of Target Chain>
Q5TGD8 Q9BQV9 Q9NQQ4

$$$$
Molecule
  SciTegic10242319433D

 68 73  0  0  0  0            999 V2000
    0.5879   -6.2811   -0.0277 C   0  0
    1.1860   -5.0565    0.0014 C   0  0
    9.5343   -2.5894    0.0661 C   0  0
   -0.8124   -6.1363   -0.0344 O   0  0
   10.9918   -2.3148   -0.0330 O   0  0
    0.0733   -4.0906    0.0115 C   0  0
   -1.1026   -4.8243   -0.0119 C   0  0
    8.5064   -1.7521    0.3903 C   0  0
    9.1907   -4.0139   -0.2110 C   0  0
    6.8543   -3.5331    0.1069 C   0  0
   11.6470   -1.0114    0.1512 C   0  0  1  0  0  0
   13.1472   -1.3000    0.0599 C   0  0
    7.9308   -4.4527   -0.1864 C   0  0
    7.1350   -2.2673    0.3786 C   0  0
    2.7043   -4.6948    0.0239 C   0  0
    1.2862   -7.6541   -0.0397 C   0  0
    5.4446   -3.9576    0.0875 C   0  0
   11.2183    0.1308   -0.8590 C   0  0
   13.9198   -0.5043   -0.4863 O   0  0
    3.6733   -5.6122   -0.0996 C   0  0
    3.1199   -3.2918    0.1924 C   0  0
    4.4043   -2.9490    0.2301 C   0  0
    5.1015   -5.2329   -0.0769 C   0  0
    8.6289    0.0954    0.8631 Br  0  0
   10.5922   -5.2448   -0.5798 Br  0  0
   13.6333   -2.5298    0.4862 O   0  0
    0.3776   -8.8868   -0.0224 C   0  0
   11.6287    1.5702   -0.4395 C   0  0
    0.0704   -2.7600    0.0301 C   0  0
   -2.3063   -4.2648   -0.0139 C   0  0
    0.9464  -10.0918   -0.0174 C   0  0
   12.6685    1.8289    0.3580 C   0  0
   10.7944    2.6911   -0.8960 C   0  0
   -1.0903   -8.7910   -0.0097 C   0  0
   -1.2403   -2.0747    0.0298 C   0  0
   -2.3719   -2.7918    0.0096 C   0  0
   12.9913    3.2039    0.7487 C   0  0
   11.0732    3.9401   -0.5230 C   0  0
   -1.8405   -9.8907    0.0055 C   0  0
    0.1213  -11.3032   -0.0004 C   0  0
   12.2273    4.2107    0.3328 C   0  0
   -1.2065  -11.2070    0.0103 C   0  0
   11.4312   -0.6656    1.1621 H   0  0
    7.7137   -5.5019   -0.3870 H   0  0
    6.3155   -1.5840    0.6015 H   0  0
    1.8968   -7.7064   -0.9411 H   0  0
    1.9293   -7.7054    0.8389 H   0  0
   11.6768   -0.0830   -1.8246 H   0  0
   10.1331    0.1044   -0.9577 H   0  0
    3.4021   -6.6612   -0.2193 H   0  0
    2.3584   -2.5178    0.2883 H   0  0
    4.6807   -1.9038    0.3689 H   0  0
    5.8716   -5.9953   -0.1945 H   0  0
   13.4055   -2.6635    1.5024 H   0  0
    1.0021   -2.1945    0.0451 H   0  0
   -3.2119   -4.8712   -0.0322 H   0  0
    2.0330  -10.1773   -0.0261 H   0  0
   13.2846    1.0071    0.7229 H   0  0
    9.9401    2.4993   -1.5452 H   0  0
   -1.5678   -7.8112   -0.0129 H   0  0
   -1.2857   -0.9858    0.0461 H   0  0
   -3.3384   -2.2878    0.0106 H   0  0
   13.8575    3.4019    1.3800 H   0  0
   10.4394    4.7616   -0.8569 H   0  0
   -2.9274   -9.8090    0.0144 H   0  0
    0.5957  -12.2845    0.0036 H   0  0
   12.4609    5.2333    0.6291 H   0  0
   -1.8193  -12.1084    0.0227 H   0  0
  2  1  2  0
  3  8  2  0
  4  1  1  0
  5  3  1  0
  6  2  1  0
  7  4  1  0
  8 14  1  0
  9 13  2  0
 10 17  1  0
  5 11  1  0
 12 11  1  0
 13 10  1  0
 14 10  2  0
 15  2  1  0
 16  1  1  0
 17 22  1  0
 18 11  1  0
 19 12  2  0
 20 15  2  0
 21 15  1  0
 22 21  2  0
 23 20  1  0
 24  8  1  0
 25  9  1  0
 26 12  1  0
 27 16  1  0
 28 18  1  0
 29  6  2  0
 30  7  2  0
 31 27  2  0
 32 28  2  0
 33 28  1  0
 34 27  1  0
 35 29  1  0
 36 30  1  0
 37 32  1  0
 38 33  2  0
 39 34  2  0
 40 31  1  0
 41 38  1  0
 42 39  1  0
  6  7  1  0
 35 36  2  0
 23 17  2  0
 40 42  2  0
  9  3  1  0
 37 41  2  0
 11 43  1  0
 13 44  1  0
 14 45  1  0
 16 46  1  0
 16 47  1  0
 18 48  1  0
 18 49  1  0
 20 50  1  0
 21 51  1  0
 22 52  1  0
 23 53  1  0
 26 54  1  0
 29 55  1  0
 30 56  1  0
 31 57  1  0
 32 58  1  0
 33 59  1  0
 34 60  1  0
 35 61  1  0
 36 62  1  0
 37 63  1  0
 38 64  1  0
 39 65  1  0
 40 66  1  0
 41 67  1  0
 42 68  1  0
M  END
> <Name>
Molecule

> <Clean Energy>
53.2322

> <From>
www.bindingDB.org

> <BindingDB Reactant_set_id>
50154574

> <Ligand InChI>
InChI=1S/C36H26Br2O4/c37-29-21-27(22-30(38)35(29)42-33(36(39)40)20-24-11-5-2-6-12-24)25-15-17-26(18-16-25)34-28-13-7-8-14-31(28)41-32(34)19-23-9-3-1-4-10-23/h1-18,21-22,33H,19-20H2,(H,39,40)

> <Ligand InChI Key>
JSVZERXVTQQPLV-UHFFFAOYSA-N

> <BindingDB MonomerID>
50086892

> <BindingDB Ligand Name>
2-[4'-(2-Benzyl-benzofuran-3-yl)-3,5-dibromo-biphenyl-4-yloxy]-3-phenyl-propionic acid::CHEMBL286541

> <Target Name>
Tyrosine-protein phosphatase non-receptor type 1

> <Target Source Organism According to Curator or DataSource>
Homo sapiens

> <IC50 (nM)>
38

> <Curation/DataSource>
ChEMBL

> <Article DOI>
10.1021/jm990560c

> <BindingDB Entry DOI>
10.7270/Q2W958FT

> <PMID>
10753467

> <Authors>
Malamas, MS; Sredy, J; Moxham, C; Katz, A; Xu, W; McDevitt, R; Adebayo, FO; Sawicki, DR; Seestaller, L; Sullivan, D; Taylor, JR

> <Institution>
Wyeth-Ayerst Research

> <Link to Ligand in BindingDB>
http://www.bindingdb.org/bind/chemsearch/marvin/MolStructure.jsp?monomerid=50086892

> <Link to Ligand-Target Pair in BindingDB>
http://www.bindingdb.org/jsp/dbsearch/PrimarySearch_ki.jsp?energyterm=kJ/mole&tag=pol&polymerid=2622&target=Tyrosine-protein+phosphatase+non-receptor+type+1&column=ki&startPg=0&Increment=50&submit=Sea
rch
http://www.bindingdb.org/jsp/dbsearch/PrimarySearch_ki.jsp?energyterm=kJ/mole&tag=r21&monomerid=50086892&enzyme=Tyrosine-protein+phosphatase+non-receptor+type+1&column=ki&startPg=0&Increment=50&submit
=Search

> <PubChem CID of Ligand>
22462579

> <PubChem SID of Ligand>
103986003

> <ChEMBL ID of Ligand>
CHEMBL286541

> <ZINC ID of Ligand>
ZINC28758911

> <Number of Protein Chains in Target (bigger than 1 implies a multichain complex)>
1

> <BindingDB Target Chain Sequence>
MEMEKEFEQIDKSGSWAAIYQDIRHEASDFPCRVAKLPKNKNRNRYRDVSPFDHSRIKLHQEDNDYINASLIKMEEAQRSYILTQGPLPNTCGHFWEMVWEQKSRGVVMLNRVMEKGSLKCAQYWPQKEEKEMIFEDTNLKLTLISEDIKSYYTVRQLELENLTTQETREILHFHYTTWPDFGVPESPASFLNFLFKVRE
SGSLSPEHGPVVVHCSAGIGRSGTFCLADTCLLLMDKRKDPSSVDIKKVLLEMRKFRMGLIQTADQLRFSYLAVIEGAKFIMGDSSVQDQWKELSHEDLEPPPEHIPPPPRPPKRILEPHNGKCREFFPNHQWVKEETQEDKDCPIKEEKGSPLNAAPYGIESMSQDTEVRSRVVGGSLRGAQAASPAKGEPSLPEKDED
HALSYWKPFLVNMCVATVLTAGAYLCYRFLFNSNT

> <PDB ID(s) of Target Chain>
1BZJ,1G7G,1GFY,1JF7,1KAK,1KAV,1LQF,1NL9,1NNY,1NO6,1NZ7,1OEM,1OEO,1OES,1OET,1OEU,1OEV,1ONY,1ONZ,1PH0,1PXH,1PYN,1Q1M,1Q6J,1Q6M,1Q6N,1Q6P,1Q6S,1Q6T,1QXK,1SUG,1T48,1T49,1T4J,1WAX,1XBO,2AZR,2B07,2BGD,2BGE,
2CM2,2CM3,2CM7,2CM8,2CMA,2CMB,2CMC,2CNE,2CNF,2CNG,2CNH,2CNI,2F6T,2F6V,2F6W,2F6Y,2F6Z,2F70,2F71,2FJN,2H4G,2H4K,2HB1,2HNP,2HNQ,2QBP,2QBQ,2QBR,2QBS,2VEU,2VEV,2VEW,2VEX,2VEY,2ZMM,2ZN7,3A5J,3CWE,3D9C,3EAX,
3EB1,3EU0,3I7Z,3I80,3SME,4BJO,4I8N,4QBW,4Y14,5K9V,5K9W,5KA0,5KA1,5T19,6B90,6NTP,6W30,7KEY,7KLX,7LFO,7MN9,7MNA,8DU7,8G65,8G67,8G68,8G69,8G6A,8SKL

> <UniProt (SwissProt) Recommended Name of Target Chain>
Tyrosine-protein phosphatase non-receptor type 1

> <UniProt (SwissProt) Entry Name of Target Chain>
PTN1_HUMAN

> <UniProt (SwissProt) Primary ID of Target Chain>
P18031

> <UniProt (SwissProt) Secondary ID(s) of Target Chain>
Q5TGD8 Q9BQV9 Q9NQQ4

$$$$
Molecule
  SciTegic10242319433D

 68 73  0  0  0  0            999 V2000
    9.8991  -25.4192   -0.1332 C   0  0
    9.2215  -26.7407    0.0043 C   0  0
   10.0099  -27.8131    0.1230 C   0  0
   11.4711  -27.7072    0.1231 C   0  0
   12.0692  -26.5266   -0.0084 C   0  0
   11.2369  -25.3209   -0.1459 C   0  0
   13.5660  -26.4705   -0.0073 C   0  0
   14.3032  -27.6830    0.2567 C   0  0
   15.6323  -27.6827    0.2867 C   0  0
   16.4274  -26.4626    0.0394 C   0  0
   15.7478  -25.3167   -0.2374 C   0  0
   14.2402  -25.3426   -0.2400 C   0  0
    7.6503  -26.8624    0.0059 C   0  0
    5.5063  -27.6403    0.0156 O   0  0
    6.8732  -27.9873    0.0227 C   0  0
    5.4164  -26.2963   -0.0029 C   0  0
    6.6949  -25.7446   -0.0120 C   0  0
    6.8937  -24.4301   -0.0257 C   0  0
    5.6959  -23.5562   -0.0349 C   0  0
    4.4684  -24.0953   -0.0272 C   0  0
    4.3101  -25.5619   -0.0094 C   0  0
   17.8837  -26.7387    0.1168 O   0  0
    7.3664  -29.4500    0.0376 C   0  0
    6.3122  -30.5551    0.0210 C   0  0
    5.0031  -30.3026    0.0091 C   0  0
    4.0367  -31.4066   -0.0064 C   0  0
    4.4637  -32.6680   -0.0092 C   0  0
    5.8976  -32.9509    0.0032 C   0  0
    6.7735  -31.9483    0.0176 C   0  0
   19.0669  -25.8849   -0.1675 C   0  0  1  0  0  0
   19.2809  -24.5667    0.6887 C   0  0
   20.5394  -23.7057    0.2908 C   0  0
   21.4695  -24.1371   -0.5711 C   0  0
   22.6315  -23.3076   -0.9124 C   0  0
   22.7655  -22.0985   -0.3749 C   0  0
   21.7497  -21.6037    0.5556 C   0  0
   20.6989  -22.3635    0.8743 C   0  0
   20.1972  -26.8793    0.0884 C   0  0
   20.1569  -27.9954   -0.4394 O   0  0
   21.1874  -26.6040    1.0335 O   0  0
   16.5470  -23.6319   -0.6210 Br  0  0
   16.5459  -29.3163    0.6169 Br  0  0
    9.2958  -24.5160   -0.2252 H   0  0
    9.5517  -28.7971    0.2227 H   0  0
   12.0758  -28.6075    0.2324 H   0  0
   11.7089  -24.3448   -0.2583 H   0  0
   13.7622  -28.6125    0.4339 H   0  0
   13.6903  -24.4221   -0.4357 H   0  0
    7.8997  -24.0105   -0.0301 H   0  0
    5.8136  -22.4727   -0.0478 H   0  0
    3.5891  -23.4512   -0.0342 H   0  0
    3.3233  -26.0247   -0.0018 H   0  0
    7.9979  -29.5895   -0.8398 H   0  0
    7.9630  -29.5830    0.9401 H   0  0
    4.6493  -29.2716    0.0110 H   0  0
    2.9677  -31.1939   -0.0158 H   0  0
    3.7454  -33.4877   -0.0206 H   0  0
    6.2497  -33.9824    0.0006 H   0  0
    7.8419  -32.1639    0.0269 H   0  0
   19.0638  -25.6206   -1.2249 H   0  0
   18.3949  -23.9423    0.5735 H   0  0
   19.3878  -24.8572    1.7339 H   0  0
   21.3617  -25.1213   -1.0270 H   0  0
   23.3842  -23.6824   -1.6059 H   0  0
   23.6268  -21.4795   -0.6259 H   0  0
   21.8515  -20.6095    0.9907 H   0  0
   19.9522  -21.9864    1.5730 H   0  0
   21.6904  -25.7215    0.7673 H   0  0
 19 20  2  0
  2  3  2  0
 20 21  1  0
 21 16  2  0
 10 11  2  0
 10 22  1  0
  5  6  1  0
 15 23  1  0
 11 12  1  0
 23 24  1  0
 12  7  2  0
 24 25  2  0
  5  7  1  0
 25 26  1  0
 13 17  1  0
 26 27  2  0
  6  1  2  0
 27 28  1  0
  1  2  1  0
 28 29  2  0
 29 24  1  0
  3  4  1  0
 30 22  1  0
 16 14  1  0
 30 31  1  0
 14 15  1  0
 31 32  1  0
 15 13  2  0
 32 33  2  0
  2 13  1  0
 33 34  1  0
  7  8  1  0
 34 35  2  0
 35 36  1  0
 16 17  1  0
 36 37  2  0
 37 32  1  0
  8  9  2  0
 30 38  1  0
 17 18  2  0
 38 39  2  0
  4  5  2  0
 38 40  1  0
 18 19  1  0
 11 41  1  0
  9 10  1  0
  9 42  1  0
  1 43  1  0
  3 44  1  0
  4 45  1  0
  6 46  1  0
  8 47  1  0
 12 48  1  0
 18 49  1  0
 19 50  1  0
 20 51  1  0
 21 52  1  0
 23 53  1  0
 23 54  1  0
 25 55  1  0
 26 56  1  0
 27 57  1  0
 28 58  1  0
 29 59  1  0
 30 60  1  0
 31 61  1  0
 31 62  1  0
 33 63  1  0
 34 64  1  0
 35 65  1  0
 36 66  1  0
 37 67  1  0
 40 68  1  0
M  END
> <Name>
Molecule

> <Clean Energy>
63.1444

> <From>
www.bindingDB.org

> <BindingDB Reactant_set_id>
51015941

> <Ligand InChI>
InChI=1S/C36H26Br2O4/c37-29-21-27(22-30(38)35(29)42-33(36(39)40)20-24-11-5-2-6-12-24)25-15-17-26(18-16-25)34-28-13-7-8-14-31(28)41-32(34)19-23-9-3-1-4-10-23/h1-18,21-22,33H,19-20H2,(H,39,40)/t33-/m0/s
1

> <Ligand InChI Key>
JSVZERXVTQQPLV-XIFFEERXSA-N

> <BindingDB MonomerID>
50416048

> <BindingDB Ligand Name>
CHEMBL1086226

> <Target Name>
Tyrosine-protein phosphatase non-receptor type 1

> <Target Source Organism According to Curator or DataSource>
Homo sapiens

> <IC50 (nM)>
38.02

> <Curation/DataSource>
ChEMBL

> <Article DOI>
10.1016/j.bmcl.2010.04.033

> <BindingDB Entry DOI>
10.7270/Q27D2WCC

> <PMID>
20452766

> <Authors>
Cheng, Y; Zhou, M; Tung, CH; Ji, M; Zhang, F

> <Institution>
Tsinghua University

> <Link to Ligand in BindingDB>
http://www.bindingdb.org/bind/chemsearch/marvin/MolStructure.jsp?monomerid=50416048

> <Link to Ligand-Target Pair in BindingDB>
http://www.bindingdb.org/jsp/dbsearch/PrimarySearch_ki.jsp?energyterm=kJ/mole&tag=pol&polymerid=2622&target=Tyrosine-protein+phosphatase+non-receptor+type+1&column=ki&startPg=0&Increment=50&submit=Sea
rch
http://www.bindingdb.org/jsp/dbsearch/PrimarySearch_ki.jsp?energyterm=kJ/mole&tag=r21&monomerid=50416048&enzyme=Tyrosine-protein+phosphatase+non-receptor+type+1&column=ki&startPg=0&Increment=50&submit
=Search

> <PubChem CID of Ligand>
9896246

> <PubChem SID of Ligand>
163365072

> <ChEMBL ID of Ligand>
CHEMBL1086226

> <ZINC ID of Ligand>
ZINC28758911

> <Number of Protein Chains in Target (bigger than 1 implies a multichain complex)>
1

> <BindingDB Target Chain Sequence>
MEMEKEFEQIDKSGSWAAIYQDIRHEASDFPCRVAKLPKNKNRNRYRDVSPFDHSRIKLHQEDNDYINASLIKMEEAQRSYILTQGPLPNTCGHFWEMVWEQKSRGVVMLNRVMEKGSLKCAQYWPQKEEKEMIFEDTNLKLTLISEDIKSYYTVRQLELENLTTQETREILHFHYTTWPDFGVPESPASFLNFLFKVRE
SGSLSPEHGPVVVHCSAGIGRSGTFCLADTCLLLMDKRKDPSSVDIKKVLLEMRKFRMGLIQTADQLRFSYLAVIEGAKFIMGDSSVQDQWKELSHEDLEPPPEHIPPPPRPPKRILEPHNGKCREFFPNHQWVKEETQEDKDCPIKEEKGSPLNAAPYGIESMSQDTEVRSRVVGGSLRGAQAASPAKGEPSLPEKDED
HALSYWKPFLVNMCVATVLTAGAYLCYRFLFNSNT

> <PDB ID(s) of Target Chain>
1BZJ,1G7G,1GFY,1JF7,1KAK,1KAV,1LQF,1NL9,1NNY,1NO6,1NZ7,1OEM,1OEO,1OES,1OET,1OEU,1OEV,1ONY,1ONZ,1PH0,1PXH,1PYN,1Q1M,1Q6J,1Q6M,1Q6N,1Q6P,1Q6S,1Q6T,1QXK,1SUG,1T48,1T49,1T4J,1WAX,1XBO,2AZR,2B07,2BGD,2BGE,
2CM2,2CM3,2CM7,2CM8,2CMA,2CMB,2CMC,2CNE,2CNF,2CNG,2CNH,2CNI,2F6T,2F6V,2F6W,2F6Y,2F6Z,2F70,2F71,2FJN,2H4G,2H4K,2HB1,2HNP,2HNQ,2QBP,2QBQ,2QBR,2QBS,2VEU,2VEV,2VEW,2VEX,2VEY,2ZMM,2ZN7,3A5J,3CWE,3D9C,3EAX,
3EB1,3EU0,3I7Z,3I80,3SME,4BJO,4I8N,4QBW,4Y14,5K9V,5K9W,5KA0,5KA1,5T19,6B90,6NTP,6W30,7KEY,7KLX,7LFO,7MN9,7MNA,8DU7,8G65,8G67,8G68,8G69,8G6A,8SKL

> <UniProt (SwissProt) Recommended Name of Target Chain>
Tyrosine-protein phosphatase non-receptor type 1

> <UniProt (SwissProt) Entry Name of Target Chain>
PTN1_HUMAN

> <UniProt (SwissProt) Primary ID of Target Chain>
P18031

> <UniProt (SwissProt) Secondary ID(s) of Target Chain>
Q5TGD8 Q9BQV9 Q9NQQ4

$$$$
11
  SciTegic10242319433D

100106  0  0  0  0            999 V2000
   -6.4605    3.5492    0.8732 C   0  0
   -6.0666    3.2585   -0.3627 C   0  0
   -4.6453    3.1615   -0.6606 C   0  0
   -3.7217    3.3442    0.2977 C   0  0
   -4.1583    3.6590    1.6655 C   0  0
   -5.4624    3.7608    1.9329 C   0  0
   -1.3388    2.5730    1.1290 C   0  0
    0.0258    1.7097    0.8273 C   0  0
   -0.0687    0.4188    1.1682 C   0  0
    0.9959   -0.5701    0.9446 C   0  0
    2.1589   -0.2268    0.4102 C   0  0
    2.3445    1.2465    0.0310 C   0  0
    1.3367    2.1545    0.2068 C   0  0
    3.2319   -1.3563    0.2331 C   0  0
    2.8043   -2.8091    0.1987 C   0  0
    5.5260   -2.2326    0.0099 C   0  0
    4.5398   -1.0956    0.1263 C   0  0
   -2.2287    3.2665   -0.0796 C   0  0  1  0  0  0
   -2.0884    2.2962   -1.3572 C   0  0
   -2.4332    0.7428   -1.0875 C   0  0
   -3.4792    0.2541   -0.1210 C   0  0
   -3.6388   -1.0447    0.1373 C   0  0
   -2.7824   -2.0284   -0.5199 C   0  0
   -1.8616   -1.6123   -1.3910 C   0  0
   -1.6791   -0.1778   -1.6892 C   0  0
   -2.8749   -3.5219   -0.2073 C   0  0
   -2.1989   -3.7511    0.9759 F   0  0
   -2.2445   -4.2193   -1.2121 F   0  0
   -4.4346   -4.0847    0.0147 P   0  0
   -4.3781   -5.4385    0.2850 O   0  0
   -5.2578   -3.8583   -1.2756 O   0  0
   -5.1234   -3.3709    1.2068 O   0  0
   -1.7804    4.7680   -0.3241 N   0  0
   -0.4895    5.2272   -0.1614 N   0  0
   -0.4405    6.4701   -0.1033 N   0  0
   -1.7300    7.0197   -0.2222 C   0  0
   -2.6089    5.9961   -0.3902 C   0  0
   -4.4087    7.6295   -0.5078 C   0  0
   -3.9205    6.2348   -0.5382 C   0  0
   -2.0955    8.3037   -0.1747 C   0  0
   -3.5357    8.6245   -0.3255 C   0  0
    7.1154   -1.9388   -0.0307 P   0  0
    7.3520   -0.5917    0.1450 O   0  0
    7.7039   -2.4245   -1.3773 O   0  0
    7.7954   -2.7543    1.1053 O   0  0
    3.7077   -3.7988    0.0561 C   0  0
    5.1134   -3.5005   -0.0258 C   0  0
    3.3126   -5.2132   -0.0084 C   0  0
    4.2553   -6.1587   -0.1313 C   0  0
    5.6986   -5.7981   -0.1893 C   0  0
    6.0586   -4.5686   -0.1370 N   0  0
    6.7775   -6.8926   -0.3327 C   0  0  2  0  0  0
    6.2013   -8.3476    0.0470 C   0  0
    7.1433   -9.6131   -0.1053 C   0  0
    6.3034  -10.8935    0.0674 C   0  0
    8.2412   -9.6462    0.9864 C   0  0
    8.0238   -6.4302    0.2654 O   0  0
    9.1810   -6.7669   -0.5384 C   0  0
   -7.5232    3.6308    1.1013 H   0  0
   -6.8038    3.0937   -1.1485 H   0  0
   -4.3249    2.9371   -1.6779 H   0  0
   -3.4226    3.8084    2.4558 H   0  0
   -5.7899    4.0024    2.9441 H   0  0
   -1.0439    3.3850    1.7936 H   0  0
   -2.0145    1.8991    1.6556 H   0  0
   -0.9910    0.0802    1.6402 H   0  0
    0.8247   -1.6094    1.2249 H   0  0
    3.2960    1.5764   -0.3861 H   0  0
    1.4748    3.1921   -0.0972 H   0  0
    1.7472   -3.0584    0.2910 H   0  0
    4.8925   -0.0643    0.1234 H   0  0
   -2.7630    2.6607   -2.1319 H   0  0
   -1.0598    2.3554   -1.7130 H   0  0
   -4.1213    0.9789    0.3794 H   0  0
   -4.4072   -1.3715    0.8379 H   0  0
   -1.2311   -2.3464   -1.8928 H   0  0
   -0.9207    0.1317   -2.4083 H   0  0
   -5.2860   -2.8325   -1.4979 H   0  0
   -4.5756   -3.5474    2.0850 H   0  0
   -5.4700    7.8442   -0.6329 H   0  0
   -4.6184    5.4095   -0.6793 H   0  0
   -1.3572    9.0923   -0.0295 H   0  0
   -3.8776    9.6589   -0.2880 H   0  0
    7.5391   -3.4564   -1.4800 H   0  0
    7.4000   -2.4604    2.0326 H   0  0
    2.2600   -5.4916    0.0434 H   0  0
    3.9607   -7.2066   -0.1896 H   0  0
    6.9830   -6.9439   -1.4019 H   0  0
    5.8906   -8.3050    1.0909 H   0  0
    5.3303   -8.5205   -0.5851 H   0  0
    7.6069   -9.6087   -1.0917 H   0  0
    6.9467  -11.7673   -0.0364 H   0  0
    5.5249  -10.9235   -0.6950 H   0  0
    5.8439  -10.8967    1.0558 H   0  0
    8.8659  -10.5285    0.8475 H   0  0
    7.7745   -9.6834    1.9708 H   0  0
    8.8571   -8.7501    0.9104 H   0  0
   10.0832   -6.4003   -0.0489 H   0  0
    9.0882   -6.3049   -1.5213 H   0  0
    9.2435   -7.8494   -0.6507 H   0  0
  1  2  2  0
  1  6  1  0
  2  3  1  0
  3  4  2  0
  4  5  1  0
  5  6  2  0
  4 18  1  0
 18  7  1  0
  7  8  1  0
  8  9  2  0
  8 13  1  0
  9 10  1  0
 10 11  2  0
 11 12  1  0
 12 13  2  0
 11 14  1  0
 14 15  1  0
 14 17  2  0
 15 46  2  0
 47 16  2  0
 16 17  1  0
 18 33  1  0
 18 19  1  0
 19 20  1  0
 25 20  2  0
 21 20  1  0
 21 22  2  0
 22 23  1  0
 23 24  2  0
 24 25  1  0
 23 26  1  0
 26 27  1  0
 26 29  1  0
 26 28  1  0
 29 31  1  0
 29 30  2  0
 29 32  1  0
 37 33  1  0
 33 34  1  0
 36 35  1  0
 34 35  2  0
 36 40  2  0
 36 37  1  0
 39 37  2  0
 38 39  1  0
 38 41  2  0
 40 41  1  0
 16 42  1  0
 42 45  1  0
 42 43  2  0
 42 44  1  0
 46 48  1  0
 46 47  1  0
 51 47  1  0
 51 50  2  0
 48 49  2  0
 49 50  1  0
 50 52  1  0
 52 53  1  0
 52 57  1  0
 53 54  1  0
 54 55  1  0
 54 56  1  0
 57 58  1  0
  1 59  1  0
  2 60  1  0
  3 61  1  0
  5 62  1  0
  6 63  1  0
  7 64  1  0
  7 65  1  0
  9 66  1  0
 10 67  1  0
 12 68  1  0
 13 69  1  0
 15 70  1  0
 17 71  1  0
 19 72  1  0
 19 73  1  0
 21 74  1  0
 22 75  1  0
 24 76  1  0
 25 77  1  0
 31 78  1  0
 32 79  1  0
 38 80  1  0
 39 81  1  0
 40 82  1  0
 41 83  1  0
 44 84  1  0
 45 85  1  0
 48 86  1  0
 49 87  1  0
 52 88  1  0
 53 89  1  0
 53 90  1  0
 54 91  1  0
 55 92  1  0
 55 93  1  0
 55 94  1  0
 56 95  1  0
 56 96  1  0
 56 97  1  0
 58 98  1  0
 58 99  1  0
 58100  1  0
M  END
> <Name>
11

> <Clean Energy>
126.962

> <From>
www.bindingDB.org

> <BindingDB Reactant_set_id>
51217036

> <Ligand InChI>
InChI=1S/C43H42F2N4O7P2/c1-28(2)23-39(56-3)37-22-19-32-24-33(25-40(41(32)46-37)57(50,51)52)31-17-13-29(14-18-31)26-42(34-9-5-4-6-10-34,49-38-12-8-7-11-36(38)47-48-49)27-30-15-20-35(21-16-30)43(44,45)5
8(53,54)55/h4-22,24-25,28,39H,23,26-27H2,1-3H3,(H2,50,51,52)(H2,53,54,55)

> <Ligand InChI Key>
USHZWXCUJLENMD-UHFFFAOYSA-N

> <BindingDB MonomerID>
13604

> <BindingDB Ligand Name>
6-{4-[2-(1H-1,2,3-benzotriazol-1-yl)-3-{4-[difluoro(phosphono)methyl]phenyl}-2-phenylpropyl]phenyl}-2-(1-methoxy-3-methylbutyl)quinoline-8-phosphonic acid::Aryldifluoromethyl-Phosphonic Acid Inhibitor
 11::CHEMBL266753

> <Target Name>
Tyrosine-protein phosphatase non-receptor type 1

> <Target Source Organism According to Curator or DataSource>
Homo sapiens

> <IC50 (nM)>
39

> <Curation/DataSource>
ChEMBL

> <Article DOI>
10.1021/acs.jmedchem.5b00586

> <BindingDB Entry DOI>
10.7270/Q24T6NC6

> <PMID>
26230724

> <Authors>
Kozakov, D; Hall, DR; Napoleon, RL; Yueh, C; Whitty, A; Vajda, S

> <Institution>
Stony Brook University

> <Link to Ligand in BindingDB>
http://www.bindingdb.org/bind/chemsearch/marvin/MolStructure.jsp?monomerid=13604

> <Link to Ligand-Target Pair in BindingDB>
http://www.bindingdb.org/jsp/dbsearch/PrimarySearch_ki.jsp?energyterm=kJ/mole&tag=pol&polymerid=2622&target=Tyrosine-protein+phosphatase+non-receptor+type+1&column=ki&startPg=0&Increment=50&submit=Sea
rch
http://www.bindingdb.org/jsp/dbsearch/PrimarySearch_ki.jsp?energyterm=kJ/mole&tag=r21&monomerid=13604&enzyme=Tyrosine-protein+phosphatase+non-receptor+type+1&column=ki&startPg=0&Increment=50&submit=Se
arch

> <Ligand HET ID in PDB>
600

> <PDB ID(s) for Ligand-Target Complex>
1Q6T

> <PubChem CID of Ligand>
10485602

> <PubChem SID of Ligand>
46512951

> <ChEMBL ID of Ligand>
CHEMBL266753

> <ZINC ID of Ligand>
ZINC95608014

> <Number of Protein Chains in Target (bigger than 1 implies a multichain complex)>
1

> <BindingDB Target Chain Sequence>
MEMEKEFEQIDKSGSWAAIYQDIRHEASDFPCRVAKLPKNKNRNRYRDVSPFDHSRIKLHQEDNDYINASLIKMEEAQRSYILTQGPLPNTCGHFWEMVWEQKSRGVVMLNRVMEKGSLKCAQYWPQKEEKEMIFEDTNLKLTLISEDIKSYYTVRQLELENLTTQETREILHFHYTTWPDFGVPESPASFLNFLFKVRE
SGSLSPEHGPVVVHCSAGIGRSGTFCLADTCLLLMDKRKDPSSVDIKKVLLEMRKFRMGLIQTADQLRFSYLAVIEGAKFIMGDSSVQDQWKELSHEDLEPPPEHIPPPPRPPKRILEPHNGKCREFFPNHQWVKEETQEDKDCPIKEEKGSPLNAAPYGIESMSQDTEVRSRVVGGSLRGAQAASPAKGEPSLPEKDED
HALSYWKPFLVNMCVATVLTAGAYLCYRFLFNSNT

> <PDB ID(s) of Target Chain>
1BZJ,1G7G,1GFY,1JF7,1KAK,1KAV,1LQF,1NL9,1NNY,1NO6,1NZ7,1OEM,1OEO,1OES,1OET,1OEU,1OEV,1ONY,1ONZ,1PH0,1PXH,1PYN,1Q1M,1Q6J,1Q6M,1Q6N,1Q6P,1Q6S,1Q6T,1QXK,1SUG,1T48,1T49,1T4J,1WAX,1XBO,2AZR,2B07,2BGD,2BGE,
2CM2,2CM3,2CM7,2CM8,2CMA,2CMB,2CMC,2CNE,2CNF,2CNG,2CNH,2CNI,2F6T,2F6V,2F6W,2F6Y,2F6Z,2F70,2F71,2FJN,2H4G,2H4K,2HB1,2HNP,2HNQ,2QBP,2QBQ,2QBR,2QBS,2VEU,2VEV,2VEW,2VEX,2VEY,2ZMM,2ZN7,3A5J,3CWE,3D9C,3EAX,
3EB1,3EU0,3I7Z,3I80,3SME,4BJO,4I8N,4QBW,4Y14,5K9V,5K9W,5KA0,5KA1,5T19,6B90,6NTP,6W30,7KEY,7KLX,7LFO,7MN9,7MNA,8DU7,8G65,8G67,8G68,8G69,8G6A,8SKL

> <UniProt (SwissProt) Recommended Name of Target Chain>
Tyrosine-protein phosphatase non-receptor type 1

> <UniProt (SwissProt) Entry Name of Target Chain>
PTN1_HUMAN

> <UniProt (SwissProt) Primary ID of Target Chain>
P18031

> <UniProt (SwissProt) Secondary ID(s) of Target Chain>
Q5TGD8 Q9BQV9 Q9NQQ4

$$$$
Molecule
  SciTegic10242319433D

 66 71  0  0  0  0            999 V2000
   10.8670   -2.5218   -0.7913 S   0  0
   -0.7670   -5.7861    0.0174 C   0  0
    0.0657   -4.6820   -0.0065 C   0  0
   -2.1089   -5.3651   -0.0131 O   0  0
   13.6612    0.9537    0.2582 C   0  0
   11.9182   -1.2065   -0.1878 C   0  0
   -0.8485   -3.5399   -0.0348 C   0  0
   12.2202    1.1897    0.0947 C   0  0
   -2.1457   -4.0199   -0.0343 C   0  0
   14.5863    2.0887    0.4191 C   0  0
   11.3946    0.1635   -0.1147 C   0  0
   10.2005   -3.7391    0.3027 O   0  0
   14.1356   -0.2924    0.2242 C   0  0
    9.8235   -1.8720   -1.6767 O   0  0
   11.7775   -3.3319   -1.6921 O   0  0
    1.6241   -4.6297    0.0316 C   0  0
   -0.3435   -7.2642    0.0428 C   0  0
   13.2247   -1.4228   -0.0328 C   0  0
    4.4629   -4.4073    0.1230 C   0  0
    5.9405   -4.2574    0.1935 C   0  0
   14.1583    3.2489    0.3986 O   0  0
    2.3903   -5.6854    0.2942 C   0  0
    2.3104   -3.3392   -0.2252 C   0  0
    3.6401   -3.2452   -0.1921 C   0  0
    3.8697   -5.5797    0.3588 C   0  0
    6.4972   -3.1432   -0.2760 C   0  0
    6.8026   -5.2947    0.7896 C   0  0
    8.7484   -3.8796    0.3034 C   0  0
   11.7127    2.4845    0.1500 O   0  0
   15.9575    1.8621    0.4903 O   0  0
   -1.4851   -8.2969    0.0246 C   0  0
    8.1280   -5.1059    0.8667 C   0  0
    7.9484   -2.9663   -0.2413 C   0  0
   -0.5905   -2.2214   -0.0478 C   0  0
   -3.2143   -3.2452   -0.0403 C   0  0
   -2.7706   -7.9441    0.0099 C   0  0
   -1.1392   -9.7234    0.0235 C   0  0
   -1.7471   -1.3010   -0.0619 C   0  0
   -2.9960   -1.7850   -0.0580 C   0  0
   -2.0971  -10.6500    0.0088 C   0  0
   -3.8255   -8.9599   -0.0063 C   0  0
   -3.5044  -10.2513   -0.0064 C   0  0
   10.3258    0.3426   -0.2321 H   0  0
   15.1978   -0.4752    0.3866 H   0  0
    0.2835   -7.4458   -0.8301 H   0  0
    0.2389   -7.4279    0.9495 H   0  0
   13.6199   -2.4366   -0.0961 H   0  0
    1.9194   -6.6532    0.4665 H   0  0
    1.7166   -2.4519   -0.4449 H   0  0
    4.1177   -2.2885   -0.4031 H   0  0
    4.4701   -6.4573    0.5983 H   0  0
    5.8664   -2.3564   -0.6897 H   0  0
    6.3617   -6.2168    1.1682 H   0  0
   11.2428    2.7160   -0.7601 H   0  0
   16.1684    1.2440    1.3125 H   0  0
    8.7546   -5.8578    1.3464 H   0  0
    8.3851   -2.0651   -0.6717 H   0  0
    0.4324   -1.8449   -0.0478 H   0  0
   -4.2193   -3.6672   -0.0325 H   0  0
   -3.0396   -6.8878    0.0099 H   0  0
   -0.0923  -10.0269    0.0349 H   0  0
   -1.5829   -0.2236   -0.0756 H   0  0
   -3.8471   -1.1042   -0.0679 H   0  0
   -1.8313  -11.7071    0.0082 H   0  0
   -4.8729   -8.6583   -0.0183 H   0  0
   -4.2874  -11.0094   -0.0178 H   0  0
  2  3  2  0
  3 16  1  0
  4  2  1  0
  5 13  2  0
  6  1  1  0
  7  3  1  0
  8 11  2  0
  9  7  1  0
 10  5  1  0
 11  6  1  0
 12  1  1  0
 13 18  1  0
 14  1  2  0
 15  1  2  0
 16 22  2  0
 17  2  1  0
 18  6  2  0
 19 20  1  0
 20 26  2  0
 21 10  2  0
 22 25  1  0
 23 24  2  0
 24 19  1  0
 25 19  2  0
 26 33  1  0
 27 32  2  0
 28 12  1  0
 29  8  1  0
 30 10  1  0
 31 17  1  0
 32 28  1  0
 33 28  2  0
 34  7  2  0
 35  9  2  0
 36 31  2  0
 37 31  1  0
 38 34  1  0
 39 38  2  0
 40 37  2  0
 41 36  1  0
 42 40  1  0
  8  5  1  0
 20 27  1  0
 23 16  1  0
  9  4  1  0
 39 35  1  0
 41 42  2  0
 11 43  1  0
 13 44  1  0
 17 45  1  0
 17 46  1  0
 18 47  1  0
 22 48  1  0
 23 49  1  0
 24 50  1  0
 25 51  1  0
 26 52  1  0
 27 53  1  0
 29 54  1  0
 30 55  1  0
 32 56  1  0
 33 57  1  0
 34 58  1  0
 35 59  1  0
 36 60  1  0
 37 61  1  0
 38 62  1  0
 39 63  1  0
 40 64  1  0
 41 65  1  0
 42 66  1  0
M  END
> <Name>
Molecule

> <Clean Energy>
55.4686

> <From>
www.bindingDB.org

> <BindingDB Reactant_set_id>
50154644

> <Ligand InChI>
InChI=1S/C34H24O7S/c35-30-21-27(18-19-28(30)34(36)37)42(38,39)41-26-16-14-24(15-17-26)23-10-12-25(13-11-23)33-29-8-4-5-9-31(29)40-32(33)20-22-6-2-1-3-7-22/h1-19,21,35H,20H2,(H,36,37)

> <Ligand InChI Key>
BISCPLGZMDTIGG-UHFFFAOYSA-N

> <BindingDB MonomerID>
50086963

> <BindingDB Ligand Name>
4-[4'-(2-Benzyl-benzofuran-3-yl)-biphenyl-4-yloxysulfonyl]-2-hydroxy-benzoic acid::CHEMBL23998

> <Target Name>
Tyrosine-protein phosphatase non-receptor type 1

> <Target Source Organism According to Curator or DataSource>
Homo sapiens

> <IC50 (nM)>
39

> <Curation/DataSource>
ChEMBL

> <Article DOI>
10.1021/jm990560c

> <BindingDB Entry DOI>
10.7270/Q2W958FT

> <PMID>
10753467

> <Authors>
Malamas, MS; Sredy, J; Moxham, C; Katz, A; Xu, W; McDevitt, R; Adebayo, FO; Sawicki, DR; Seestaller, L; Sullivan, D; Taylor, JR

> <Institution>
Wyeth-Ayerst Research

> <Link to Ligand in BindingDB>
http://www.bindingdb.org/bind/chemsearch/marvin/MolStructure.jsp?monomerid=50086963

> <Link to Ligand-Target Pair in BindingDB>
http://www.bindingdb.org/jsp/dbsearch/PrimarySearch_ki.jsp?energyterm=kJ/mole&tag=pol&polymerid=2622&target=Tyrosine-protein+phosphatase+non-receptor+type+1&column=ki&startPg=0&Increment=50&submit=Sea
rch
http://www.bindingdb.org/jsp/dbsearch/PrimarySearch_ki.jsp?energyterm=kJ/mole&tag=r21&monomerid=50086963&enzyme=Tyrosine-protein+phosphatase+non-receptor+type+1&column=ki&startPg=0&Increment=50&submit
=Search

> <PubChem CID of Ligand>
9851148

> <PubChem SID of Ligand>
103986074

> <ChEMBL ID of Ligand>
CHEMBL23998

> <ZINC ID of Ligand>
ZINC02008079

> <Number of Protein Chains in Target (bigger than 1 implies a multichain complex)>
1

> <BindingDB Target Chain Sequence>
MEMEKEFEQIDKSGSWAAIYQDIRHEASDFPCRVAKLPKNKNRNRYRDVSPFDHSRIKLHQEDNDYINASLIKMEEAQRSYILTQGPLPNTCGHFWEMVWEQKSRGVVMLNRVMEKGSLKCAQYWPQKEEKEMIFEDTNLKLTLISEDIKSYYTVRQLELENLTTQETREILHFHYTTWPDFGVPESPASFLNFLFKVRE
SGSLSPEHGPVVVHCSAGIGRSGTFCLADTCLLLMDKRKDPSSVDIKKVLLEMRKFRMGLIQTADQLRFSYLAVIEGAKFIMGDSSVQDQWKELSHEDLEPPPEHIPPPPRPPKRILEPHNGKCREFFPNHQWVKEETQEDKDCPIKEEKGSPLNAAPYGIESMSQDTEVRSRVVGGSLRGAQAASPAKGEPSLPEKDED
HALSYWKPFLVNMCVATVLTAGAYLCYRFLFNSNT

> <PDB ID(s) of Target Chain>
1BZJ,1G7G,1GFY,1JF7,1KAK,1KAV,1LQF,1NL9,1NNY,1NO6,1NZ7,1OEM,1OEO,1OES,1OET,1OEU,1OEV,1ONY,1ONZ,1PH0,1PXH,1PYN,1Q1M,1Q6J,1Q6M,1Q6N,1Q6P,1Q6S,1Q6T,1QXK,1SUG,1T48,1T49,1T4J,1WAX,1XBO,2AZR,2B07,2BGD,2BGE,
2CM2,2CM3,2CM7,2CM8,2CMA,2CMB,2CMC,2CNE,2CNF,2CNG,2CNH,2CNI,2F6T,2F6V,2F6W,2F6Y,2F6Z,2F70,2F71,2FJN,2H4G,2H4K,2HB1,2HNP,2HNQ,2QBP,2QBQ,2QBR,2QBS,2VEU,2VEV,2VEW,2VEX,2VEY,2ZMM,2ZN7,3A5J,3CWE,3D9C,3EAX,
3EB1,3EU0,3I7Z,3I80,3SME,4BJO,4I8N,4QBW,4Y14,5K9V,5K9W,5KA0,5KA1,5T19,6B90,6NTP,6W30,7KEY,7KLX,7LFO,7MN9,7MNA,8DU7,8G65,8G67,8G68,8G69,8G6A,8SKL

> <UniProt (SwissProt) Recommended Name of Target Chain>
Tyrosine-protein phosphatase non-receptor type 1

> <UniProt (SwissProt) Entry Name of Target Chain>
PTN1_HUMAN

> <UniProt (SwissProt) Primary ID of Target Chain>
P18031

> <UniProt (SwissProt) Secondary ID(s) of Target Chain>
Q5TGD8 Q9BQV9 Q9NQQ4

$$$$
Molecule
  SciTegic10242319433D

 69 73  0  0  0  0            999 V2000
   11.0543   -7.8029   -1.2585 O   0  0
   11.2486   -8.6630   -0.0242 S   0  0
   11.1299   -7.8316    1.2396 O   0  0
   12.9275  -10.2876   -1.1936 F   0  0
   12.8674   -9.4822   -0.0749 C   0  0
   12.9719  -10.3373    1.0033 F   0  0
   17.9983  -11.7681   -0.8150 O   0  0
   19.1798  -12.0347    0.0967 S   0  0
   18.7684  -11.7551    1.5294 O   0  0
   20.5454  -10.9351   -0.3073 N   0  0
   21.8323  -11.5002    0.2815 C   0  0
   20.3117   -9.5294    0.2904 C   0  0
   19.3628  -13.8033   -0.0172 C   0  0
   18.2287  -14.4976    0.0251 C   0  0
   18.2356  -15.9411   -0.0102 C   0  0
   19.3883  -16.6017   -0.0748 C   0  0
   20.6548  -15.8523   -0.1216 C   0  0
   20.6444  -14.5177   -0.0960 C   0  0
   19.0021   -8.7276    0.1070 C   0  0
   19.0626   -7.3954    0.0935 C   0  0
   17.8248   -6.6009    0.0061 C   0  0
   17.6941   -9.3524    0.0604 C   0  0
   23.2148  -10.7762    0.1112 C   0  0
   24.3115  -11.4813    0.3967 C   0  0
   25.6458  -10.8703    0.3179 C   0  0
   25.7777   -9.5906   -0.0238 C   0  0
   24.5928   -8.8002   -0.3460 C   0  0
   23.3826   -9.3563   -0.2944 C   0  0
   27.1058   -8.9699   -0.0609 C   0  0
   28.2324   -9.6438    0.1742 C   0  0
   29.4019   -8.4872    0.0284 S   0  0
   28.4863   -7.1958   -0.3083 N   0  0
   27.3105   -7.5453   -0.3366 N   0  0
   19.3961  -18.0046   -0.0927 O   0  0
   18.0519  -18.5194   -0.0327 C   0  0
   18.0827  -20.0133   -0.0106 C   0  0
   16.8923  -20.7330    0.0285 O   0  0
   19.1662  -20.6067   -0.0223 O   0  0
   16.5813   -8.6396   -0.0056 C   0  0
   16.6427   -7.2169   -0.0346 C   0  0
   15.4098   -6.4631   -0.0840 C   0  0
   14.2224   -7.0781   -0.0984 C   0  0
   14.1527   -8.6132   -0.0719 C   0  0
   15.2922   -9.3038   -0.0305 C   0  0
   12.7033   -5.9395   -0.1410 Br  0  0
   10.0075   -9.8813   -0.0070 N   0  0
   21.9537  -12.4941   -0.1491 H   0  0
   21.6639  -11.5869    1.3550 H   0  0
   21.1046   -8.8995   -0.1128 H   0  0
   20.4452   -9.6382    1.3667 H   0  0
   17.2782  -13.9678    0.0874 H   0  0
   17.2945  -16.4904    0.0163 H   0  0
   21.6024  -16.3881   -0.1772 H   0  0
   21.5809  -13.9612   -0.1334 H   0  0
   20.0288   -6.8938    0.1473 H   0  0
   17.8752   -5.5125   -0.0252 H   0  0
   17.6258  -10.4401    0.0803 H   0  0
   24.2161  -12.5260    0.6927 H   0  0
   26.5304  -11.4672    0.5399 H   0  0
   24.6983   -7.7530   -0.6294 H   0  0
   22.5056   -8.7627   -0.5527 H   0  0
   28.3523  -10.7020    0.4065 H   0  0
   17.5646  -18.1542    0.8713 H   0  0
   17.4959  -18.1819   -0.9074 H   0  0
   16.3568  -20.4776    0.8949 H   0  0
   15.4489   -5.3741   -0.1099 H   0  0
   15.2542  -10.3930   -0.0151 H   0  0
   10.0849  -10.4825   -0.8888 H   0  0
    9.0464   -9.4117    0.0208 H   0  0
 11 23  1  0
  8 13  1  0
 23 24  2  0
  5  4  1  0
 24 25  1  0
 13 14  2  0
 25 26  2  0
  6  5  1  0
 26 27  1  0
 14 15  1  0
 27 28  2  0
 28 23  1  0
 29 30  2  0
 15 16  2  0
  2  1  2  0
 16 17  1  0
  3  2  2  0
 30 31  1  0
 31 32  1  0
 32 33  2  0
 33 29  1  0
 26 29  1  0
 17 18  2  0
 16 34  1  0
 18 13  1  0
 34 35  1  0
 10 11  1  0
 35 36  1  0
 12 19  1  0
 36 37  1  0
 10  8  1  0
 36 38  2  0
 19 20  2  0
  8  7  2  0
 39 40  1  0
 20 21  1  0
 40 41  1  0
 21 40  2  0
 41 42  2  0
 10 12  1  0
 42 43  1  0
 39 22  2  0
 43 44  2  0
 44 39  1  0
 22 19  1  0
 42 45  1  0
 43  5  1  0
  5  2  1  0
  9  8  2  0
  2 46  1  0
 11 47  1  0
 11 48  1  0
 12 49  1  0
 12 50  1  0
 14 51  1  0
 15 52  1  0
 17 53  1  0
 18 54  1  0
 20 55  1  0
 21 56  1  0
 22 57  1  0
 24 58  1  0
 25 59  1  0
 27 60  1  0
 28 61  1  0
 30 62  1  0
 35 63  1  0
 35 64  1  0
 37 65  1  0
 41 66  1  0
 44 67  1  0
 46 68  1  0
 46 69  1  0
M  END
> <Name>
Molecule

> <Clean Energy>
65.8632

> <From>
www.bindingDB.org

> <BindingDB Reactant_set_id>
50713197

> <Ligand InChI>
InChI=1S/C29H23BrF2N4O7S3/c30-26-13-21-6-3-19(11-22(21)12-25(26)29(31,32)46(33,41)42)15-36(14-18-1-4-20(5-2-18)27-17-44-35-34-27)45(39,40)24-9-7-23(8-10-24)43-16-28(37)38/h1-13,17H,14-16H2,(H,37,38)(H
2,33,41,42)

> <Ligand InChI Key>
LBPOYSHRRGARAV-UHFFFAOYSA-N

> <BindingDB MonomerID>
50362193

> <BindingDB Ligand Name>
CHEMBL1938826

> <Target Name>
Tyrosine-protein phosphatase non-receptor type 1

> <Target Source Organism According to Curator or DataSource>
Homo sapiens

> <IC50 (nM)>
39

> <Curation/DataSource>
ChEMBL

> <Article DOI>
10.1016/j.bmcl.2011.11.122

> <BindingDB Entry DOI>
10.7270/Q2ZS2X05

> <PMID>
22189136

> <Authors>
Patel, D; Jain, M; Shah, SR; Bahekar, R; Jadav, P; Joharapurkar, A; Dhanesha, N; Shaikh, M; Sairam, KV; Kapadnis, P

> <Institution>
M.S. University of Baroda

> <Link to Ligand in BindingDB>
http://www.bindingdb.org/bind/chemsearch/marvin/MolStructure.jsp?monomerid=50362193

> <Link to Ligand-Target Pair in BindingDB>
http://www.bindingdb.org/jsp/dbsearch/PrimarySearch_ki.jsp?energyterm=kJ/mole&tag=pol&polymerid=2622&target=Tyrosine-protein+phosphatase+non-receptor+type+1&column=ki&startPg=0&Increment=50&submit=Sea
rch
http://www.bindingdb.org/jsp/dbsearch/PrimarySearch_ki.jsp?energyterm=kJ/mole&tag=r21&monomerid=50362193&enzyme=Tyrosine-protein+phosphatase+non-receptor+type+1&column=ki&startPg=0&Increment=50&submit
=Search

> <PubChem CID of Ligand>
57395949

> <PubChem SID of Ligand>
136966255

> <ChEMBL ID of Ligand>
CHEMBL1938826

> <ZINC ID of Ligand>
ZINC95549477

> <Number of Protein Chains in Target (bigger than 1 implies a multichain complex)>
1

> <BindingDB Target Chain Sequence>
MEMEKEFEQIDKSGSWAAIYQDIRHEASDFPCRVAKLPKNKNRNRYRDVSPFDHSRIKLHQEDNDYINASLIKMEEAQRSYILTQGPLPNTCGHFWEMVWEQKSRGVVMLNRVMEKGSLKCAQYWPQKEEKEMIFEDTNLKLTLISEDIKSYYTVRQLELENLTTQETREILHFHYTTWPDFGVPESPASFLNFLFKVRE
SGSLSPEHGPVVVHCSAGIGRSGTFCLADTCLLLMDKRKDPSSVDIKKVLLEMRKFRMGLIQTADQLRFSYLAVIEGAKFIMGDSSVQDQWKELSHEDLEPPPEHIPPPPRPPKRILEPHNGKCREFFPNHQWVKEETQEDKDCPIKEEKGSPLNAAPYGIESMSQDTEVRSRVVGGSLRGAQAASPAKGEPSLPEKDED
HALSYWKPFLVNMCVATVLTAGAYLCYRFLFNSNT

> <PDB ID(s) of Target Chain>
1BZJ,1G7G,1GFY,1JF7,1KAK,1KAV,1LQF,1NL9,1NNY,1NO6,1NZ7,1OEM,1OEO,1OES,1OET,1OEU,1OEV,1ONY,1ONZ,1PH0,1PXH,1PYN,1Q1M,1Q6J,1Q6M,1Q6N,1Q6P,1Q6S,1Q6T,1QXK,1SUG,1T48,1T49,1T4J,1WAX,1XBO,2AZR,2B07,2BGD,2BGE,
2CM2,2CM3,2CM7,2CM8,2CMA,2CMB,2CMC,2CNE,2CNF,2CNG,2CNH,2CNI,2F6T,2F6V,2F6W,2F6Y,2F6Z,2F70,2F71,2FJN,2H4G,2H4K,2HB1,2HNP,2HNQ,2QBP,2QBQ,2QBR,2QBS,2VEU,2VEV,2VEW,2VEX,2VEY,2ZMM,2ZN7,3A5J,3CWE,3D9C,3EAX,
3EB1,3EU0,3I7Z,3I80,3SME,4BJO,4I8N,4QBW,4Y14,5K9V,5K9W,5KA0,5KA1,5T19,6B90,6NTP,6W30,7KEY,7KLX,7LFO,7MN9,7MNA,8DU7,8G65,8G67,8G68,8G69,8G6A,8SKL

> <UniProt (SwissProt) Recommended Name of Target Chain>
Tyrosine-protein phosphatase non-receptor type 1

> <UniProt (SwissProt) Entry Name of Target Chain>
PTN1_HUMAN

> <UniProt (SwissProt) Primary ID of Target Chain>
P18031

> <UniProt (SwissProt) Secondary ID(s) of Target Chain>
Q5TGD8 Q9BQV9 Q9NQQ4

$$$$
1
  SciTegic10242319433D

 71 75  0  0  0  0            999 V2000
    1.1334    2.7957   -0.2685 C   0  0
    0.1028    2.6259   -1.0909 C   0  0
   -0.3418    1.2667   -1.4456 C   0  0
    1.4564    0.3662   -0.1021 C   0  0
    1.8542    1.6019    0.2307 C   0  0
    1.5429    4.1972    0.2224 C   0  0
    1.7711    4.1079    1.5810 F   0  0
    2.7423    4.5387   -0.3579 F   0  0
    0.4031    5.4041   -0.0826 P   0  0
    0.1818    5.5842   -1.6062 O   0  0
    0.9205    6.7460    0.5077 O   0  0
   -0.7973    5.0886    0.5246 O   0  0
    0.2769    0.1743   -0.9796 C   0  0
   -0.4906   -1.2083   -1.2359 C   0  0
   -1.8710   -3.2958   -0.3199 C   0  0
   -3.1926   -2.7076   -0.5883 C   0  0
   -4.3017   -3.4529   -0.6061 C   0  0
   -4.2233   -4.9228   -0.4066 C   0  0
   -3.0304   -5.4456   -0.2293 C   0  0
   -1.8543   -4.6097   -0.1561 C   0  0
   -5.3970   -5.8966   -0.3800 C   0  0
   -5.0893   -7.0989   -0.4299 O   0  0
   -6.8133   -5.6156   -0.2333 O   0  0
   -7.2437   -4.2611   -0.0422 C   0  0
    0.8859   -3.1062    0.1265 N   0  0
    2.0165   -2.3798    0.3815 N   0  0
    3.0419   -3.0889    0.4844 N   0  0
    1.3580   -4.5330    0.0671 C   0  0
    2.7015   -4.4049    0.3065 C   0  0
    0.8069   -5.6903   -0.1413 C   0  0
    1.6302   -6.9233   -0.1124 C   0  0
    2.9402   -6.8141    0.1241 C   0  0
    3.5284   -5.4874    0.3456 C   0  0
   -0.5477   -2.3829   -0.0786 C   0  0  1  0  0  0
   -0.8838   -1.5102    1.2768 C   0  0
   -1.9333   -0.3729    1.0315 C   0  0
   -3.2154   -0.2948    1.3814 C   0  0
   -3.9364    0.9115    0.8932 C   0  0
   -5.9609    2.1166    0.2953 C   0  0
   -5.2673    0.9349    0.8396 C   0  0
   -3.1725    2.0705    0.3983 C   0  0
   -3.8011    3.1375   -0.0945 C   0  0
   -5.2625    3.1610   -0.1506 C   0  0
   -0.4137    3.4928   -1.5031 H   0  0
   -1.1998    1.1468   -2.1070 H   0  0
    2.0013   -0.5000    0.2732 H   0  0
    2.7214    1.7304    0.8784 H   0  0
    1.0883    5.8535   -2.0626 H   0  0
    1.0593    6.6428    1.5434 H   0  0
   -1.5245   -0.9496   -1.4644 H   0  0
   -0.0266   -1.6609   -2.1123 H   0  0
   -3.2690   -1.6369   -0.7775 H   0  0
   -5.2699   -2.9793   -0.7680 H   0  0
   -2.9269   -6.5267   -0.1361 H   0  0
   -0.8964   -5.0890    0.0461 H   0  0
   -8.3295   -4.2337    0.0485 H   0  0
   -6.9357   -3.6575   -0.8961 H   0  0
   -6.7935   -3.8610    0.8663 H   0  0
   -0.2632   -5.7555   -0.3380 H   0  0
    1.1753   -7.8994   -0.2808 H   0  0
    3.5685   -7.7043    0.1525 H   0  0
    4.5954   -5.3716    0.5357 H   0  0
   -1.2764   -2.1864    2.0361 H   0  0
    0.0405   -1.0574    1.6357 H   0  0
   -1.5532    0.4920    0.4878 H   0  0
   -3.7030   -1.0614    1.9837 H   0  0
   -7.0501    2.1365    0.2572 H   0  0
   -5.8428    0.0813    1.1978 H   0  0
   -2.0833    2.0550    0.4355 H   0  0
   -3.2271    3.9911   -0.4552 H   0  0
   -5.7795    4.0308   -0.5560 H   0  0
  1  2  2  0
  1  5  1  0
  2  3  1  0
  3 13  2  0
 13  4  1  0
  4  5  2  0
  1  6  1  0
  6  9  1  0
  6  7  1  0
  6  8  1  0
  9 11  1  0
  9 12  2  0
  9 10  1  0
 13 14  1  0
 14 34  1  0
 34 25  1  0
 34 15  1  0
 20 15  2  0
 16 15  1  0
 16 17  2  0
 17 18  1  0
 18 19  2  0
 19 20  1  0
 18 21  1  0
 21 22  2  0
 21 23  1  0
 23 24  1  0
 26 25  1  0
 25 28  1  0
 26 27  2  0
 29 27  1  0
 30 28  2  0
 28 29  1  0
 33 29  2  0
 30 31  1  0
 31 32  2  0
 32 33  1  0
 34 35  1  0
 35 36  1  0
 36 37  2  0
 37 38  1  0
 40 38  2  0
 38 41  1  0
 39 40  1  0
 39 43  2  0
 41 42  2  0
 42 43  1  0
  2 44  1  0
  3 45  1  0
  4 46  1  0
  5 47  1  0
 10 48  1  0
 11 49  1  0
 14 50  1  0
 14 51  1  0
 16 52  1  0
 17 53  1  0
 19 54  1  0
 20 55  1  0
 24 56  1  0
 24 57  1  0
 24 58  1  0
 30 59  1  0
 31 60  1  0
 32 61  1  0
 33 62  1  0
 35 63  1  0
 35 64  1  0
 36 65  1  0
 37 66  1  0
 39 67  1  0
 40 68  1  0
 41 69  1  0
 42 70  1  0
 43 71  1  0
M  END
> <Name>
1

> <Clean Energy>
117.224

> <From>
www.bindingDB.org

> <BindingDB Reactant_set_id>
50503522

> <Ligand InChI>
InChI=1S/C32H28F2N3O5P/c1-42-30(38)25-15-19-26(20-16-25)31(21-7-10-23-8-3-2-4-9-23,37-29-12-6-5-11-28(29)35-36-37)22-24-13-17-27(18-14-24)32(33,34)43(39,40)41/h2-20H,21-22H2,1H3,(H2,39,40,41)/b10-7+

> <Ligand InChI Key>
GWWTUJWRRCTCSI-JXMROGBWSA-N

> <BindingDB MonomerID>
13814

> <BindingDB Ligand Name>
({4-[(4E)-2-(1H-1,2,3-benzotriazol-1-yl)-2-[4-(methoxycarbonyl)phenyl]-5-phenylpent-4-en-1-yl]phenyl}difluoromethyl)phosphonic acid::benzotriazole phenyldifluoromethylphosphonic acid compound 1

> <Target Name>
Tyrosine-protein phosphatase non-receptor type 1

> <Target Source Organism According to Curator or DataSource>
Homo sapiens

> <IC50 (nM)>
39

> <Curation/DataSource>
ChEMBL

> <Article DOI>
10.1016/j.bmc.2016.06.035

> <BindingDB Entry DOI>
10.7270/Q20Z756P

> <PMID>
27353889

> <Authors>
Li, X; Wang, L; Shi, D

> <Institution>
Chinese Academy of Sciences

> <Link to Ligand in BindingDB>
http://www.bindingdb.org/bind/chemsearch/marvin/MolStructure.jsp?monomerid=13814

> <Link to Ligand-Target Pair in BindingDB>
http://www.bindingdb.org/jsp/dbsearch/PrimarySearch_ki.jsp?energyterm=kJ/mole&tag=pol&polymerid=2622&target=Tyrosine-protein+phosphatase+non-receptor+type+1&column=ki&startPg=0&Increment=50&submit=Sea
rch
http://www.bindingdb.org/jsp/dbsearch/PrimarySearch_ki.jsp?energyterm=kJ/mole&tag=r21&monomerid=13814&enzyme=Tyrosine-protein+phosphatase+non-receptor+type+1&column=ki&startPg=0&Increment=50&submit=Se
arch

> <Ligand HET ID in PDB>
73

> <PDB ID(s) for Ligand-Target Complex>
2FJN,2FJM

> <PubChem CID of Ligand>
10167662

> <PubChem SID of Ligand>
46514193

> <ZINC ID of Ligand>
ZINC14953986

> <Number of Protein Chains in Target (bigger than 1 implies a multichain complex)>
1

> <BindingDB Target Chain Sequence>
MEMEKEFEQIDKSGSWAAIYQDIRHEASDFPCRVAKLPKNKNRNRYRDVSPFDHSRIKLHQEDNDYINASLIKMEEAQRSYILTQGPLPNTCGHFWEMVWEQKSRGVVMLNRVMEKGSLKCAQYWPQKEEKEMIFEDTNLKLTLISEDIKSYYTVRQLELENLTTQETREILHFHYTTWPDFGVPESPASFLNFLFKVRE
SGSLSPEHGPVVVHCSAGIGRSGTFCLADTCLLLMDKRKDPSSVDIKKVLLEMRKFRMGLIQTADQLRFSYLAVIEGAKFIMGDSSVQDQWKELSHEDLEPPPEHIPPPPRPPKRILEPHNGKCREFFPNHQWVKEETQEDKDCPIKEEKGSPLNAAPYGIESMSQDTEVRSRVVGGSLRGAQAASPAKGEPSLPEKDED
HALSYWKPFLVNMCVATVLTAGAYLCYRFLFNSNT

> <PDB ID(s) of Target Chain>
1BZJ,1G7G,1GFY,1JF7,1KAK,1KAV,1LQF,1NL9,1NNY,1NO6,1NZ7,1OEM,1OEO,1OES,1OET,1OEU,1OEV,1ONY,1ONZ,1PH0,1PXH,1PYN,1Q1M,1Q6J,1Q6M,1Q6N,1Q6P,1Q6S,1Q6T,1QXK,1SUG,1T48,1T49,1T4J,1WAX,1XBO,2AZR,2B07,2BGD,2BGE,
2CM2,2CM3,2CM7,2CM8,2CMA,2CMB,2CMC,2CNE,2CNF,2CNG,2CNH,2CNI,2F6T,2F6V,2F6W,2F6Y,2F6Z,2F70,2F71,2FJN,2H4G,2H4K,2HB1,2HNP,2HNQ,2QBP,2QBQ,2QBR,2QBS,2VEU,2VEV,2VEW,2VEX,2VEY,2ZMM,2ZN7,3A5J,3CWE,3D9C,3EAX,
3EB1,3EU0,3I7Z,3I80,3SME,4BJO,4I8N,4QBW,4Y14,5K9V,5K9W,5KA0,5KA1,5T19,6B90,6NTP,6W30,7KEY,7KLX,7LFO,7MN9,7MNA,8DU7,8G65,8G67,8G68,8G69,8G6A,8SKL

> <UniProt (SwissProt) Recommended Name of Target Chain>
Tyrosine-protein phosphatase non-receptor type 1

> <UniProt (SwissProt) Entry Name of Target Chain>
PTN1_HUMAN

> <UniProt (SwissProt) Primary ID of Target Chain>
P18031

> <UniProt (SwissProt) Secondary ID(s) of Target Chain>
Q5TGD8 Q9BQV9 Q9NQQ4

$$$$
Molecule
  SciTegic10242319433D

 89 92  0  0  0  0            999 V2000
   10.8062  -26.6728   -1.3879 O   0  0
   11.1809  -26.3922    0.0548 S   0  0
   10.3907  -27.2516    1.0225 O   0  0
   -3.0408  -22.1506    0.2227 C   0  0
   -3.2145  -23.4685    0.1774 C   0  0
   -2.0597  -24.3526    0.0066 C   0  0
   -0.8371  -23.8283   -0.1013 C   0  0
   -0.6461  -22.3679   -0.0609 C   0  0
   -1.6974  -21.5678    0.0962 C   0  0
   -1.5886  -20.0548    0.1084 C   0  0
   -0.2330  -19.3968   -0.1757 C   0  0
   -0.2870  -18.2490   -0.6415 O   0  0
    0.9747  -19.9734    0.0635 N   0  0
    2.2417  -19.2440   -0.2300 C   0  0  2  0  0  0
    3.4997  -20.0574    0.1855 C   0  0
    4.7223  -19.6572   -0.1850 N   0  0
    3.3618  -21.0766    0.8893 O   0  0
    5.9894  -20.2995    0.1811 C   0  0  2  0  0  0
    7.1357  -19.3705   -0.2808 C   0  0
    8.3433  -19.4409    0.2730 N   0  0
    6.9302  -18.5539   -1.1955 O   0  0
    2.1886  -17.8478    0.5334 C   0  0
    6.0883  -21.7192   -0.5377 C   0  0
    7.3759  -22.5402   -0.2472 C   0  0
    7.6563  -23.6188   -0.9837 C   0  0
    8.9124  -24.3758   -0.7537 C   0  0
    9.7643  -23.9745    0.1917 C   0  0
    9.4425  -22.8230    1.0054 C   0  0
   11.0784  -24.6670    0.4321 C   0  0  2  0  0  0
   -2.2280  -25.7465   -0.0480 O   0  0
   -3.6145  -26.1061    0.0719 C   0  0
    8.3143  -22.1519    0.8069 C   0  0
    9.4611  -18.6274   -0.1510 C   0  0
   10.7477  -19.4189    0.2068 C   0  0
   12.0399  -18.6956   -0.2161 C   0  0
   13.2367  -19.6094    0.1493 C   0  0
   14.5663  -18.9386   -0.2423 C   0  0
   12.8506  -26.4390    0.2201 N   0  0
   13.3321  -25.1458   -0.1262 C   0  0
   12.2213  -24.1271   -0.4594 C   0  0
   14.5350  -24.8614   -0.1603 O   0  0
    3.2472  -16.7826    0.2241 C   0  0
    4.2064  -16.9545   -0.6861 C   0  0
    5.1741  -15.8881   -0.9577 C   0  0
    5.0860  -14.7274   -0.3129 C   0  0
    4.0235  -14.5212    0.6686 C   0  0
    3.1548  -15.4972    0.9252 C   0  0
   -3.9028  -21.4967    0.3548 H   0  0
   -4.2156  -23.8901    0.2673 H   0  0
    0.0252  -24.4843   -0.2200 H   0  0
    0.3533  -21.9444   -0.1595 H   0  0
   -2.2867  -19.6800   -0.6401 H   0  0
   -1.9023  -19.7216    1.0976 H   0  0
    1.0166  -20.9633    0.4675 H   0  0
    2.2912  -19.0518   -1.3018 H   0  0
    4.7808  -18.7877   -0.8059 H   0  0
    6.0359  -20.4309    1.2621 H   0  0
    8.4952  -20.1349    1.0730 H   0  0
    2.2586  -18.0654    1.5992 H   0  0
    1.2174  -17.4033    0.3159 H   0  0
    6.0343  -21.5530   -1.6135 H   0  0
    5.2335  -22.3152   -0.2182 H   0  0
    6.9601  -23.9443   -1.7566 H   0  0
    9.1380  -25.2564   -1.3551 H   0  0
   10.1313  -22.5037    1.7875 H   0  0
   11.3579  -24.5246    1.4760 H   0  0
   -3.7144  -27.1905    0.0263 H   0  0
   -4.1792  -25.6551   -0.7441 H   0  0
   -4.0028  -25.7457    1.0246 H   0  0
    8.0826  -21.2959    1.4407 H   0  0
    9.4133  -18.4540   -1.2260 H   0  0
    9.4502  -17.6715    0.3726 H   0  0
   10.7726  -19.5707    1.2859 H   0  0
   10.7111  -20.3855   -0.2958 H   0  0
   12.0276  -18.5130   -1.2906 H   0  0
   12.1233  -17.7464    0.3133 H   0  0
   13.2313  -19.7951    1.2234 H   0  0
   13.1415  -20.5554   -0.3839 H   0  0
   15.3961  -19.5942    0.0214 H   0  0
   14.6675  -17.9930    0.2904 H   0  0
   14.5777  -18.7531   -1.3164 H   0  0
   13.4389  -27.2786    0.5264 H   0  0
   12.5066  -23.1130   -0.1797 H   0  0
   11.9549  -24.1518   -1.5161 H   0  0
    4.2711  -17.8954   -1.2325 H   0  0
    5.9671  -16.0459   -1.6888 H   0  0
    5.8042  -13.9331   -0.5163 H   0  0
    3.9419  -13.5680    1.1910 H   0  0
    2.3678  -15.3397    1.6627 H   0  0
 23 24  1  0
  6  7  2  0
 24 25  2  0
 11 13  1  0
 25 26  1  0
  2  1  2  0
 26 27  2  0
 14 13  1  0
 27 28  1  0
 28 32  2  0
 32 24  1  0
  7  8  1  0
 29 27  1  0
 14 15  1  0
  6 30  1  0
  4  5  2  0
 30 31  1  0
 15 16  1  0
  8  9  2  0
 20 33  1  0
 15 17  2  0
 33 34  1  0
  9  4  1  0
 34 35  1  0
 18 16  1  0
 35 36  1  0
  3  2  2  0
 36 37  1  0
 29  2  1  0
 18 19  1  0
  9 10  1  0
 19 20  1  0
  2 38  1  0
 38 39  1  0
 39 40  1  0
 29 40  1  0
  5  6  1  0
 39 41  2  0
 19 21  2  0
 22 42  1  0
 10 11  1  0
 42 43  2  0
 14 22  1  0
 43 44  1  0
 44 45  2  0
 18 23  1  0
 45 46  1  0
 11 12  2  0
 46 47  2  0
 47 42  1  0
  4 48  1  0
  5 49  1  0
  7 50  1  0
  8 51  1  0
 10 52  1  0
 10 53  1  0
 13 54  1  0
 14 55  1  0
 16 56  1  0
 18 57  1  0
 20 58  1  0
 22 59  1  0
 22 60  1  0
 23 61  1  0
 23 62  1  0
 25 63  1  0
 26 64  1  0
 28 65  1  0
 29 66  1  0
 31 67  1  0
 31 68  1  0
 31 69  1  0
 32 70  1  0
 33 71  1  0
 33 72  1  0
 34 73  1  0
 34 74  1  0
 35 75  1  0
 35 76  1  0
 36 77  1  0
 36 78  1  0
 37 79  1  0
 37 80  1  0
 37 81  1  0
 38 82  1  0
 40 83  1  0
 40 84  1  0
 43 85  1  0
 44 86  1  0
 45 87  1  0
 46 88  1  0
 47 89  1  0
M  END
> <Name>
Molecule

> <Clean Energy>
75.7009

> <From>
www.bindingDB.org

> <BindingDB Reactant_set_id>
50635419

> <Ligand InChI>
InChI=1S/C35H42N4O7S/c1-3-4-8-19-36-34(42)29(21-25-11-15-27(16-12-25)31-23-33(41)39-47(31,44)45)38-35(43)30(20-24-9-6-5-7-10-24)37-32(40)22-26-13-17-28(46-2)18-14-26/h5-7,9-18,29-31H,3-4,8,19-23H2,1-2
H3,(H,36,42)(H,37,40)(H,38,43)(H,39,41)/t29-,30-,31-/m0/s1

> <Ligand InChI Key>
DTDNFGWSHQCKPC-CHQNGUEUSA-N

> <BindingDB MonomerID>
50341990

> <BindingDB Ligand Name>
(S)-2-[2-(4-Methoxy-phenyl)-acetylamino]-N-{(S)-1-pentylcarbamoyl-2-[4-((S)-1,1,3-trioxo-1lambda*6*-isothiazolidin-5-yl)-phenyl]-ethyl}-3-phenyl-propionamide::CHEMBL1765347

> <Target Name>
Tyrosine-protein phosphatase non-receptor type 1

> <Target Source Organism According to Curator or DataSource>
Homo sapiens

> <IC50 (nM)>
40

> <Curation/DataSource>
ChEMBL

> <Article DOI>
10.1016/j.bmc.2011.02.047

> <BindingDB Entry DOI>
10.7270/Q2BR8SHK

> <PMID>
21420867

> <Authors>
Vintonyak, VV; Waldmann, H; Rauh, D

> <Institution>
Max Planck Institute of Molecular Physiology

> <Link to Ligand in BindingDB>
http://www.bindingdb.org/bind/chemsearch/marvin/MolStructure.jsp?monomerid=50341990

> <Link to Ligand-Target Pair in BindingDB>
http://www.bindingdb.org/jsp/dbsearch/PrimarySearch_ki.jsp?energyterm=kJ/mole&tag=pol&polymerid=2622&target=Tyrosine-protein+phosphatase+non-receptor+type+1&column=ki&startPg=0&Increment=50&submit=Sea
rch
http://www.bindingdb.org/jsp/dbsearch/PrimarySearch_ki.jsp?energyterm=kJ/mole&tag=r21&monomerid=50341990&enzyme=Tyrosine-protein+phosphatase+non-receptor+type+1&column=ki&startPg=0&Increment=50&submit
=Search

> <PubChem CID of Ligand>
54582254

> <PubChem SID of Ligand>
131344926

> <ChEMBL ID of Ligand>
CHEMBL1765347

> <ZINC ID of Ligand>
ZINC72132807

> <Number of Protein Chains in Target (bigger than 1 implies a multichain complex)>
1

> <BindingDB Target Chain Sequence>
MEMEKEFEQIDKSGSWAAIYQDIRHEASDFPCRVAKLPKNKNRNRYRDVSPFDHSRIKLHQEDNDYINASLIKMEEAQRSYILTQGPLPNTCGHFWEMVWEQKSRGVVMLNRVMEKGSLKCAQYWPQKEEKEMIFEDTNLKLTLISEDIKSYYTVRQLELENLTTQETREILHFHYTTWPDFGVPESPASFLNFLFKVRE
SGSLSPEHGPVVVHCSAGIGRSGTFCLADTCLLLMDKRKDPSSVDIKKVLLEMRKFRMGLIQTADQLRFSYLAVIEGAKFIMGDSSVQDQWKELSHEDLEPPPEHIPPPPRPPKRILEPHNGKCREFFPNHQWVKEETQEDKDCPIKEEKGSPLNAAPYGIESMSQDTEVRSRVVGGSLRGAQAASPAKGEPSLPEKDED
HALSYWKPFLVNMCVATVLTAGAYLCYRFLFNSNT

> <PDB ID(s) of Target Chain>
1BZJ,1G7G,1GFY,1JF7,1KAK,1KAV,1LQF,1NL9,1NNY,1NO6,1NZ7,1OEM,1OEO,1OES,1OET,1OEU,1OEV,1ONY,1ONZ,1PH0,1PXH,1PYN,1Q1M,1Q6J,1Q6M,1Q6N,1Q6P,1Q6S,1Q6T,1QXK,1SUG,1T48,1T49,1T4J,1WAX,1XBO,2AZR,2B07,2BGD,2BGE,
2CM2,2CM3,2CM7,2CM8,2CMA,2CMB,2CMC,2CNE,2CNF,2CNG,2CNH,2CNI,2F6T,2F6V,2F6W,2F6Y,2F6Z,2F70,2F71,2FJN,2H4G,2H4K,2HB1,2HNP,2HNQ,2QBP,2QBQ,2QBR,2QBS,2VEU,2VEV,2VEW,2VEX,2VEY,2ZMM,2ZN7,3A5J,3CWE,3D9C,3EAX,
3EB1,3EU0,3I7Z,3I80,3SME,4BJO,4I8N,4QBW,4Y14,5K9V,5K9W,5KA0,5KA1,5T19,6B90,6NTP,6W30,7KEY,7KLX,7LFO,7MN9,7MNA,8DU7,8G65,8G67,8G68,8G69,8G6A,8SKL

> <UniProt (SwissProt) Recommended Name of Target Chain>
Tyrosine-protein phosphatase non-receptor type 1

> <UniProt (SwissProt) Entry Name of Target Chain>
PTN1_HUMAN

> <UniProt (SwissProt) Primary ID of Target Chain>
P18031

> <UniProt (SwissProt) Secondary ID(s) of Target Chain>
Q5TGD8 Q9BQV9 Q9NQQ4

$$$$
Molecule
  SciTegic10242319433D

 77 80  0  0  0  0            999 V2000
   -0.8773   -1.2744   -0.1097 C   0  0
    5.3506    2.9701    0.4942 P   0  0
    3.9309    3.7292    0.0894 C   0  0
   -0.0478   -8.0418    0.8309 C   0  0
    0.2010   -1.7435   -1.0878 C   0  0
   -2.3811   -1.6658   -0.6687 C   0  0
    0.6795   -8.4524   -0.4295 C   0  0
    2.7376    2.8306    0.2542 C   0  0
   -0.4814   -2.0775    1.2326 C   0  0
   -0.7423    0.3183    0.0677 C   0  0
   -0.1666   -6.5149    0.9167 C   0  0
    5.3323    2.6150    1.8271 O   0  0
    1.5414   -1.4531   -0.7818 O   0  0
   -3.7016   -0.9074   -0.5594 O   0  0
   -2.4572   -2.6983   -1.3403 O   0  0
   -0.0866   -2.3886   -2.0999 O   0  0
    0.1492   -9.2483   -1.2134 O   0  0
    3.9623    4.1293   -1.2336 F   0  0
    3.7477    4.8710    0.8376 F   0  0
    6.5300    3.9388    0.2376 O   0  0
    5.5350    1.7042   -0.3891 O   0  0
   -1.2926   -8.6351    0.8046 F   0  0
    0.7251   -8.4507    1.8950 F   0  0
    1.5751    3.2489   -0.2300 C   0  0
    2.8380    1.4835    0.8554 C   0  0
   -1.1584   -5.8791    0.2994 C   0  0
    0.7895   -5.7317    1.7173 C   0  0
    0.5125    1.1415    0.2941 C   0  0
   -0.4098   -3.6771    1.1168 C   0  0
    1.9891   -8.0732   -0.6349 O   0  0
    2.4913   -1.9453   -1.7205 C   0  0
   -3.7983    0.3628    0.1524 C   0  0
    0.6728   -4.4002    1.8161 C   0  0
    1.7758    0.6765    0.8829 C   0  0
   -1.2746   -4.4081    0.4014 C   0  0
    0.4383    2.3704   -0.2075 C   0  0
    3.1882   -3.1421   -1.1455 C   0  0
   -5.0933    1.1108    0.0137 C   0  0
    4.3275   -2.9976   -0.4643 C   0  0
   -6.2200    0.5025   -0.3484 C   0  0
   -5.0960    2.5540    0.2961 C   0  0
    2.6254   -4.4638   -1.3455 C   0  0
   -7.4634    1.2845   -0.4531 C   0  0
   -6.2194    3.2593    0.1946 C   0  0
    3.2468   -5.5294   -0.8519 C   0  0
    5.0103   -4.1762    0.0856 C   0  0
    4.4906   -5.3863   -0.1025 C   0  0
   -7.4607    2.5931   -0.1940 C   0  0
    0.4992   -1.7247    1.5522 H   0  0
   -1.2219   -1.8338    1.9945 H   0  0
   -1.1804    0.7323   -0.8405 H   0  0
   -1.3805    0.5534    0.9194 H   0  0
    6.5488    4.2069   -0.7775 H   0  0
    4.7311    1.0471   -0.2320 H   0  0
    1.4830    4.2537   -0.6425 H   0  0
    3.7848    1.1479    1.2783 H   0  0
   -1.8871   -6.4431   -0.2828 H   0  0
    1.6019   -6.2410    2.2357 H   0  0
    2.0538   -7.0251   -0.6400 H   0  0
    1.9796   -2.2299   -2.6399 H   0  0
    3.2239   -1.1679   -1.9375 H   0  0
   -3.6442    0.1611    1.2125 H   0  0
   -3.0013    1.0096   -0.2144 H   0  0
    1.3871   -3.8422    2.4215 H   0  0
    1.8442   -0.3128    1.3355 H   0  0
   -2.0878   -3.9041   -0.1209 H   0  0
   -0.5108    2.7211   -0.6129 H   0  0
    4.7512   -2.0043   -0.3161 H   0  0
   -6.2227   -0.5656   -0.5657 H   0  0
   -4.1708    3.0494    0.5906 H   0  0
    1.6944   -4.5827   -1.8998 H   0  0
   -8.3910    0.7915   -0.7438 H   0  0
   -6.2141    4.3296    0.4006 H   0  0
    2.8228   -6.5213   -1.0084 H   0  0
    5.9384   -4.0598    0.6451 H   0  0
    4.9914   -6.2663    0.3011 H   0  0
   -8.3848    3.1657   -0.2723 H   0  0
  2  3  1  0
  3  8  1  0
  4 11  1  0
  5  1  1  0
  6  1  1  0
  7  4  1  0
  8 24  2  0
  9  1  1  0
 10  1  1  0
 11 26  2  0
 12  2  2  0
 13  5  1  0
 14  6  1  0
 15  6  2  0
 16  5  2  0
 17  7  2  0
 18  3  1  0
 19  3  1  0
 20  2  1  0
 21  2  1  0
 22  4  1  0
 23  4  1  0
 24 36  1  0
 25 34  2  0
 26 35  1  0
 27 33  2  0
 28 10  1  0
 29  9  1  0
 30  7  1  0
 31 13  1  0
 32 14  1  0
 33 29  1  0
 34 28  1  0
 35 29  2  0
 36 28  2  0
 37 31  1  0
 38 32  1  0
 39 37  2  0
 40 38  2  0
 41 38  1  0
 42 37  1  0
 43 40  1  0
 44 41  2  0
 45 42  2  0
 46 39  1  0
 47 45  1  0
 48 44  1  0
 25  8  1  0
 27 11  1  0
 43 48  2  0
 46 47  2  0
  9 49  1  0
  9 50  1  0
 10 51  1  0
 10 52  1  0
 20 53  1  0
 21 54  1  0
 24 55  1  0
 25 56  1  0
 26 57  1  0
 27 58  1  0
 30 59  1  0
 31 60  1  0
 31 61  1  0
 32 62  1  0
 32 63  1  0
 33 64  1  0
 34 65  1  0
 35 66  1  0
 36 67  1  0
 39 68  1  0
 40 69  1  0
 41 70  1  0
 42 71  1  0
 43 72  1  0
 44 73  1  0
 45 74  1  0
 46 75  1  0
 47 76  1  0
 48 77  1  0
M  END
> <Name>
Molecule

> <Clean Energy>
110.264

> <From>
www.bindingDB.org

> <BindingDB Reactant_set_id>
50026880

> <Ligand InChI>
InChI=1S/C34H29F4O9P/c35-33(36,29(39)40)27-15-11-23(12-16-27)19-32(30(41)46-21-25-7-3-1-4-8-25,31(42)47-22-26-9-5-2-6-10-26)20-24-13-17-28(18-14-24)34(37,38)48(43,44)45/h1-18H,19-22H2,(H,39,40)(H2,43,
44,45)

> <Ligand InChI Key>
IYTHPNDOVFLZCH-UHFFFAOYSA-N

> <BindingDB MonomerID>
50142315

> <BindingDB Ligand Name>
2-[4-(Carboxy-difluoro-methyl)-benzyl]-2-[4-(difluoro-phosphono-methyl)-benzyl]-malonic acid dibenzyl ester::CHEMBL9046

> <Target Name>
Tyrosine-protein phosphatase non-receptor type 1

> <Target Source Organism According to Curator or DataSource>
Homo sapiens

> <IC50 (nM)>
40

> <Curation/DataSource>
ChEMBL

> <Article DOI>
10.1016/j.bmcl.2003.11.048

> <BindingDB Entry DOI>
10.7270/Q28C9VPM

> <PMID>
15013019

> <Authors>
Dufresne, C; Roy, P; Wang, Z; Asante-Appiah, E; Cromlish, W; Boie, Y; Forghani, F; Desmarais, S; Wang, Q; Skorey, K; Waddleton, D; Ramachandran, C; Kennedy, BP; Xu, L; Gordon, R; Chan, CC; Leblanc, Y

> <Institution>
Merck Frosst Centre for Therapeutic Research

> <Link to Ligand in BindingDB>
http://www.bindingdb.org/bind/chemsearch/marvin/MolStructure.jsp?monomerid=50142315

> <Link to Ligand-Target Pair in BindingDB>
http://www.bindingdb.org/jsp/dbsearch/PrimarySearch_ki.jsp?energyterm=kJ/mole&tag=pol&polymerid=2622&target=Tyrosine-protein+phosphatase+non-receptor+type+1&column=ki&startPg=0&Increment=50&submit=Sea
rch
http://www.bindingdb.org/jsp/dbsearch/PrimarySearch_ki.jsp?energyterm=kJ/mole&tag=r21&monomerid=50142315&enzyme=Tyrosine-protein+phosphatase+non-receptor+type+1&column=ki&startPg=0&Increment=50&submit
=Search

> <PubChem CID of Ligand>
10009840

> <PubChem SID of Ligand>
104031706

> <ChEMBL ID of Ligand>
CHEMBL9046

> <ZINC ID of Ligand>
ZINC25990520

> <Number of Protein Chains in Target (bigger than 1 implies a multichain complex)>
1

> <BindingDB Target Chain Sequence>
MEMEKEFEQIDKSGSWAAIYQDIRHEASDFPCRVAKLPKNKNRNRYRDVSPFDHSRIKLHQEDNDYINASLIKMEEAQRSYILTQGPLPNTCGHFWEMVWEQKSRGVVMLNRVMEKGSLKCAQYWPQKEEKEMIFEDTNLKLTLISEDIKSYYTVRQLELENLTTQETREILHFHYTTWPDFGVPESPASFLNFLFKVRE
SGSLSPEHGPVVVHCSAGIGRSGTFCLADTCLLLMDKRKDPSSVDIKKVLLEMRKFRMGLIQTADQLRFSYLAVIEGAKFIMGDSSVQDQWKELSHEDLEPPPEHIPPPPRPPKRILEPHNGKCREFFPNHQWVKEETQEDKDCPIKEEKGSPLNAAPYGIESMSQDTEVRSRVVGGSLRGAQAASPAKGEPSLPEKDED
HALSYWKPFLVNMCVATVLTAGAYLCYRFLFNSNT

> <PDB ID(s) of Target Chain>
1BZJ,1G7G,1GFY,1JF7,1KAK,1KAV,1LQF,1NL9,1NNY,1NO6,1NZ7,1OEM,1OEO,1OES,1OET,1OEU,1OEV,1ONY,1ONZ,1PH0,1PXH,1PYN,1Q1M,1Q6J,1Q6M,1Q6N,1Q6P,1Q6S,1Q6T,1QXK,1SUG,1T48,1T49,1T4J,1WAX,1XBO,2AZR,2B07,2BGD,2BGE,
2CM2,2CM3,2CM7,2CM8,2CMA,2CMB,2CMC,2CNE,2CNF,2CNG,2CNH,2CNI,2F6T,2F6V,2F6W,2F6Y,2F6Z,2F70,2F71,2FJN,2H4G,2H4K,2HB1,2HNP,2HNQ,2QBP,2QBQ,2QBR,2QBS,2VEU,2VEV,2VEW,2VEX,2VEY,2ZMM,2ZN7,3A5J,3CWE,3D9C,3EAX,
3EB1,3EU0,3I7Z,3I80,3SME,4BJO,4I8N,4QBW,4Y14,5K9V,5K9W,5KA0,5KA1,5T19,6B90,6NTP,6W30,7KEY,7KLX,7LFO,7MN9,7MNA,8DU7,8G65,8G67,8G68,8G69,8G6A,8SKL

> <UniProt (SwissProt) Recommended Name of Target Chain>
Tyrosine-protein phosphatase non-receptor type 1

> <UniProt (SwissProt) Entry Name of Target Chain>
PTN1_HUMAN

> <UniProt (SwissProt) Primary ID of Target Chain>
P18031

> <UniProt (SwissProt) Secondary ID(s) of Target Chain>
Q5TGD8 Q9BQV9 Q9NQQ4

$$$$
Molecule
  SciTegic10242319433D

 78 84  0  0  0  0            999 V2000
   10.5482   -3.9121    0.2439 S   0  0
   -1.0280   -3.5063   -0.0027 C   0  0
   -0.1867   -2.4194   -0.0016 C   0  0
   -2.3692   -3.0734   -0.0056 O   0  0
   13.5309   -7.3431   -0.1273 C   0  0
   -0.7107   -4.9990   -0.0242 C   0  0
    9.9942   -2.3699   -0.3143 O   0  0
   -1.0908   -1.2532    0.0236 C   0  0
   11.6754   -5.2219   -0.2485 C   0  0
   -2.3897   -1.7373    0.0101 C   0  0
    7.9357   -1.0739   -0.0538 C   0  0
   14.0094   -5.9475   -0.2055 C   0  0
    8.5642   -2.2604   -0.2441 C   0  0
    6.4381   -1.0392    0.0348 C   0  0
   14.4743   -8.4700    0.0040 C   0  0
   13.1282   -4.9439   -0.2769 C   0  0
    5.7301   -2.1667   -0.0607 C   0  0
   12.2216   -7.5934   -0.1415 C   0  0
    1.3853   -2.3377    0.0113 C   0  0
    9.7583   -4.3633    1.4526 O   0  0
   11.7659   -3.1887    0.7554 O   0  0
    4.2365   -2.1827   -0.0121 C   0  0
   11.2553   -6.4833   -0.1523 C   0  0
    0.4456   -5.4153   -0.0190 O   0  0
   -1.7888   -6.0274   -0.0187 C   0  0
    7.7575   -3.4766   -0.3246 C   0  0
   14.0335   -9.6189    0.1267 O   0  0
    6.4304   -3.4324   -0.2411 C   0  0
    2.0983   -1.0289    0.1263 C   0  0
    2.1457   -3.4241   -0.1059 C   0  0
    8.6938    0.2513    0.1723 C   0  0
    3.4371   -0.9576    0.1227 C   0  0
    3.6086   -3.3497   -0.1190 C   0  0
   15.3770   -5.6702   -0.1977 O   0  0
   15.8461   -8.2472    0.0951 O   0  0
   -0.8303    0.0506    0.0327 C   0  0
   -3.4594   -0.9510    0.0158 C   0  0
   -3.0815   -5.6998   -0.0147 C   0  0
   -1.4083   -7.4447   -0.0175 C   0  0
    7.8782    1.5109   -0.0626 C   0  0
    9.9912    0.5231   -0.5512 C   0  0
   -1.9812    0.9824    0.0400 C   0  0
   -3.2328    0.5042    0.0312 C   0  0
   -2.3433   -8.3937   -0.0112 C   0  0
   -4.1115   -6.7430   -0.0088 C   0  0
   10.3227    1.8890    0.0917 C   0  0
    8.9380    2.6263    0.1855 C   0  0
   -3.7595   -8.0271   -0.0068 C   0  0
    5.9256   -0.0879    0.1780 H   0  0
   13.4821   -3.9160   -0.3564 H   0  0
   11.8655   -8.6236   -0.1452 H   0  0
   10.1883   -6.6942   -0.0812 H   0  0
    8.2530   -4.4386   -0.4556 H   0  0
    5.8578   -4.3574   -0.3087 H   0  0
    1.5164   -0.1115    0.2150 H   0  0
    1.6653   -4.3984   -0.1948 H   0  0
    8.9457    0.2633    1.2327 H   0  0
    3.9321    0.0086    0.2198 H   0  0
    4.1915   -4.2654   -0.2180 H   0  0
   15.6371   -5.1645   -1.0803 H   0  0
   16.1784   -7.7492   -0.7675 H   0  0
    0.1950    0.4207    0.0348 H   0  0
   -4.4671   -1.3666    0.0093 H   0  0
   -3.3741   -4.6499   -0.0157 H   0  0
   -0.3544   -7.7226   -0.0218 H   0  0
    7.4921    1.5496   -1.0813 H   0  0
    7.0508    1.5854    0.6431 H   0  0
   10.7493   -0.2292   -0.3332 H   0  0
    9.8530    0.5986   -1.6297 H   0  0
   -1.8099    2.0587    0.0526 H   0  0
   -4.0802    1.1897    0.0354 H   0  0
   -2.0528   -9.4443   -0.0094 H   0  0
   -5.1661   -6.4673   -0.0061 H   0  0
   10.7546    1.7533    1.0833 H   0  0
   11.0165    2.4507   -0.5336 H   0  0
    8.8639    3.4029   -0.5758 H   0  0
    8.8050    3.0701    1.1721 H   0  0
   -4.5247   -8.8033   -0.0019 H   0  0
  2  3  2  0
  3 19  1  0
  4  2  1  0
  5 18  2  0
  6  2  1  0
  7  1  1  0
  8  3  1  0
  9  1  1  0
 10  8  1  0
 11 13  2  0
 12 16  2  0
 13  7  1  0
 14 11  1  0
 15  5  1  0
 16  9  1  0
 17 28  1  0
 18 23  1  0
 19 30  2  0
 20  1  2  0
 21  1  2  0
 22 17  1  0
 23  9  2  0
 24  6  2  0
 25  6  1  0
 26 13  1  0
 27 15  2  0
 28 26  2  0
 29 32  2  0
 30 33  1  0
 31 11  1  0
 32 22  1  0
 33 22  2  0
 34 12  1  0
 35 15  1  0
 36  8  2  0
 37 10  2  0
 38 25  2  0
 39 25  1  0
 40 31  1  0
 41 31  1  0
 42 36  1  0
 43 42  2  0
 44 39  2  0
 45 38  1  0
 46 41  1  0
 47 40  1  0
 48 44  1  0
 12  5  1  0
 14 17  2  0
 46 47  1  0
 29 19  1  0
 10  4  1  0
 43 37  1  0
 45 48  2  0
 14 49  1  0
 16 50  1  0
 18 51  1  0
 23 52  1  0
 26 53  1  0
 28 54  1  0
 29 55  1  0
 30 56  1  0
 31 57  1  0
 32 58  1  0
 33 59  1  0
 34 60  1  0
 35 61  1  0
 36 62  1  0
 37 63  1  0
 38 64  1  0
 39 65  1  0
 40 66  1  0
 40 67  1  0
 41 68  1  0
 41 69  1  0
 42 70  1  0
 43 71  1  0
 44 72  1  0
 45 73  1  0
 46 74  1  0
 46 75  1  0
 47 76  1  0
 47 77  1  0
 48 78  1  0
M  END
> <Name>
Molecule

> <Clean Energy>
117.258

> <From>
www.bindingDB.org

> <BindingDB Reactant_set_id>
50154658

> <Ligand InChI>
InChI=1S/C39H30O8S/c40-33-23-29(19-20-30(33)39(42)43)48(44,45)47-35-21-18-28(22-32(35)25-8-4-5-9-25)24-14-16-26(17-15-24)36-31-12-6-7-13-34(31)46-38(36)37(41)27-10-2-1-3-11-27/h1-3,6-7,10-23,25,40H,4-
5,8-9H2,(H,42,43)

> <Ligand InChI Key>
PCUPDWBBPRVNPZ-UHFFFAOYSA-N

> <BindingDB MonomerID>
50086973

> <BindingDB Ligand Name>
4-[4'-(2-Benzoyl-benzofuran-3-yl)-3-cyclopentyl-biphenyl-4-yloxysulfonyl]-2-hydroxy-benzoic acid::CHEMBL24481

> <Target Name>
Tyrosine-protein phosphatase non-receptor type 1

> <Target Source Organism According to Curator or DataSource>
Homo sapiens

> <IC50 (nM)>
40

> <Curation/DataSource>
ChEMBL

> <Article DOI>
10.1021/jm990560c

> <BindingDB Entry DOI>
10.7270/Q2W958FT

> <PMID>
10753467

> <Authors>
Malamas, MS; Sredy, J; Moxham, C; Katz, A; Xu, W; McDevitt, R; Adebayo, FO; Sawicki, DR; Seestaller, L; Sullivan, D; Taylor, JR

> <Institution>
Wyeth-Ayerst Research

> <Link to Ligand in BindingDB>
http://www.bindingdb.org/bind/chemsearch/marvin/MolStructure.jsp?monomerid=50086973

> <Link to Ligand-Target Pair in BindingDB>
http://www.bindingdb.org/jsp/dbsearch/PrimarySearch_ki.jsp?energyterm=kJ/mole&tag=pol&polymerid=2622&target=Tyrosine-protein+phosphatase+non-receptor+type+1&column=ki&startPg=0&Increment=50&submit=Sea
rch
http://www.bindingdb.org/jsp/dbsearch/PrimarySearch_ki.jsp?energyterm=kJ/mole&tag=r21&monomerid=50086973&enzyme=Tyrosine-protein+phosphatase+non-receptor+type+1&column=ki&startPg=0&Increment=50&submit
=Search

> <PubChem CID of Ligand>
10651932

> <PubChem SID of Ligand>
103986084

> <ChEMBL ID of Ligand>
CHEMBL24481

> <ZINC ID of Ligand>
ZINC03981796

> <Number of Protein Chains in Target (bigger than 1 implies a multichain complex)>
1

> <BindingDB Target Chain Sequence>
MEMEKEFEQIDKSGSWAAIYQDIRHEASDFPCRVAKLPKNKNRNRYRDVSPFDHSRIKLHQEDNDYINASLIKMEEAQRSYILTQGPLPNTCGHFWEMVWEQKSRGVVMLNRVMEKGSLKCAQYWPQKEEKEMIFEDTNLKLTLISEDIKSYYTVRQLELENLTTQETREILHFHYTTWPDFGVPESPASFLNFLFKVRE
SGSLSPEHGPVVVHCSAGIGRSGTFCLADTCLLLMDKRKDPSSVDIKKVLLEMRKFRMGLIQTADQLRFSYLAVIEGAKFIMGDSSVQDQWKELSHEDLEPPPEHIPPPPRPPKRILEPHNGKCREFFPNHQWVKEETQEDKDCPIKEEKGSPLNAAPYGIESMSQDTEVRSRVVGGSLRGAQAASPAKGEPSLPEKDED
HALSYWKPFLVNMCVATVLTAGAYLCYRFLFNSNT

> <PDB ID(s) of Target Chain>
1BZJ,1G7G,1GFY,1JF7,1KAK,1KAV,1LQF,1NL9,1NNY,1NO6,1NZ7,1OEM,1OEO,1OES,1OET,1OEU,1OEV,1ONY,1ONZ,1PH0,1PXH,1PYN,1Q1M,1Q6J,1Q6M,1Q6N,1Q6P,1Q6S,1Q6T,1QXK,1SUG,1T48,1T49,1T4J,1WAX,1XBO,2AZR,2B07,2BGD,2BGE,
2CM2,2CM3,2CM7,2CM8,2CMA,2CMB,2CMC,2CNE,2CNF,2CNG,2CNH,2CNI,2F6T,2F6V,2F6W,2F6Y,2F6Z,2F70,2F71,2FJN,2H4G,2H4K,2HB1,2HNP,2HNQ,2QBP,2QBQ,2QBR,2QBS,2VEU,2VEV,2VEW,2VEX,2VEY,2ZMM,2ZN7,3A5J,3CWE,3D9C,3EAX,
3EB1,3EU0,3I7Z,3I80,3SME,4BJO,4I8N,4QBW,4Y14,5K9V,5K9W,5KA0,5KA1,5T19,6B90,6NTP,6W30,7KEY,7KLX,7LFO,7MN9,7MNA,8DU7,8G65,8G67,8G68,8G69,8G6A,8SKL

> <UniProt (SwissProt) Recommended Name of Target Chain>
Tyrosine-protein phosphatase non-receptor type 1

> <UniProt (SwissProt) Entry Name of Target Chain>
PTN1_HUMAN

> <UniProt (SwissProt) Primary ID of Target Chain>
P18031

> <UniProt (SwissProt) Secondary ID(s) of Target Chain>
Q5TGD8 Q9BQV9 Q9NQQ4

$$$$
Molecule
  SciTegic10242319433D

 68 72  0  0  0  0            999 V2000
   -9.9308  -15.0289   -1.2629 O   0  0
   -9.7393  -15.8922   -0.0301 S   0  0
   -9.8507  -15.0610    1.2349 O   0  0
   -8.0737  -17.5323   -1.2045 F   0  0
   -8.1234  -16.7283   -0.0853 C   0  0
   -8.0263  -17.5837    0.9926 F   0  0
   -3.1337  -18.7489   -0.6915 O   0  0
   -1.9216  -19.1108    0.1434 S   0  0
   -2.2497  -18.8319    1.5969 O   0  0
   -0.5302  -18.0798   -0.3029 N   0  0
    0.7567  -18.6560    0.2801 C   0  0
   -0.7352  -16.6989    0.2798 C   0  0
   -1.7747  -20.8958   -0.0031 C   0  0
   -2.9074  -21.5945    0.0384 C   0  0
   -2.8897  -23.0492   -0.0122 C   0  0
   -1.7317  -23.7033   -0.0884 C   0  0
   -0.4753  -22.9474   -0.1353 C   0  0
   -0.4938  -21.6146   -0.0969 C   0  0
   -2.0385  -15.9339    0.0929 C   0  0
   -1.9712  -14.6045    0.0912 C   0  0
   -3.1853  -13.8241    0.0070 C   0  0
   -3.3001  -16.5652    0.0363 N   0  0
    2.1463  -17.9415    0.1051 C   0  0
    3.2388  -18.6517    0.3939 C   0  0
    4.5769  -18.0471    0.3156 C   0  0
    4.7158  -16.7683   -0.0277 C   0  0
    3.5367  -15.9729   -0.3533 C   0  0
    2.3241  -16.5225   -0.3031 C   0  0
    6.0457  -16.1525   -0.0631 C   0  0
    7.1699  -16.8292    0.1749 C   0  0
    8.3427  -15.6758    0.0299 S   0  0
    7.4313  -14.3822   -0.3097 N   0  0
    6.2547  -14.7286   -0.3399 N   0  0
   -1.7040  -25.1082   -0.1155 O   0  0
   -3.0342  -25.6516   -0.0492 C   0  0
   -2.9668  -27.1474   -0.0189 C   0  0
   -4.1391  -27.8956    0.0274 O   0  0
   -1.8694  -27.7156   -0.0271 O   0  0
   -4.3832  -15.8927   -0.0216 C   0  0
   -4.3490  -14.4592   -0.0396 C   0  0
   -5.5800  -13.7174   -0.0844 C   0  0
   -6.7620  -14.3339   -0.1014 C   0  0
   -6.8279  -15.8691   -0.0832 C   0  0
   -5.6833  -16.5632   -0.0491 C   0  0
   -8.2770  -13.1888   -0.1374 Br  0  0
  -10.9933  -17.0965   -0.0115 N   0  0
    0.8688  -19.6500   -0.1527 H   0  0
    0.5922  -18.7432    1.3541 H   0  0
    0.0510  -16.0706   -0.1386 H   0  0
   -0.5893  -16.7963    1.3556 H   0  0
   -3.8603  -21.0704    0.1113 H   0  0
   -3.8270  -23.6051    0.0123 H   0  0
    0.4755  -23.4763   -0.2019 H   0  0
    0.4417  -21.0563   -0.1350 H   0  0
   -1.0039  -14.1059    0.1531 H   0  0
   -3.1453  -12.7351   -0.0178 H   0  0
    3.1376  -19.6952    0.6921 H   0  0
    5.4583  -18.6481    0.5395 H   0  0
    3.6482  -14.9268   -0.6382 H   0  0
    1.4511  -15.9244   -0.5646 H   0  0
    7.2864  -17.8875    0.4086 H   0  0
   -3.5276  -25.2928    0.8541 H   0  0
   -3.6002  -25.3320   -0.9242 H   0  0
   -4.6785  -27.6487    0.8937 H   0  0
   -5.5461  -12.6281   -0.1048 H   0  0
   -5.7210  -17.6525   -0.0417 H   0  0
  -10.9254  -17.6966   -0.8949 H   0  0
  -11.9491  -16.6165    0.0205 H   0  0
 11 23  1  0
  8 13  1  0
 23 24  2  0
  5  4  1  0
 24 25  1  0
 13 14  2  0
 25 26  2  0
  6  5  1  0
 26 27  1  0
 14 15  1  0
 27 28  2  0
 28 23  1  0
 29 30  2  0
 15 16  2  0
  2  1  2  0
 16 17  1  0
  3  2  2  0
 30 31  1  0
 31 32  1  0
 32 33  2  0
 33 29  1  0
 26 29  1  0
 17 18  2  0
 16 34  1  0
 18 13  1  0
 34 35  1  0
 10 11  1  0
 35 36  1  0
 12 19  1  0
 36 37  1  0
 10  8  1  0
 36 38  2  0
 19 20  2  0
  8  7  2  0
 39 40  1  0
 20 21  1  0
 40 41  1  0
 21 40  2  0
 41 42  2  0
 10 12  1  0
 42 43  1  0
 39 22  2  0
 43 44  2  0
 44 39  1  0
 22 19  1  0
 42 45  1  0
 43  5  1  0
  5  2  1  0
  9  8  2  0
  2 46  1  0
 11 47  1  0
 11 48  1  0
 12 49  1  0
 12 50  1  0
 14 51  1  0
 15 52  1  0
 17 53  1  0
 18 54  1  0
 20 55  1  0
 21 56  1  0
 24 57  1  0
 25 58  1  0
 27 59  1  0
 28 60  1  0
 30 61  1  0
 35 62  1  0
 35 63  1  0
 37 64  1  0
 41 65  1  0
 44 66  1  0
 46 67  1  0
 46 68  1  0
M  END
> <Name>
Molecule

> <Clean Energy>
60.4636

> <From>
www.bindingDB.org

> <BindingDB Reactant_set_id>
50713198

> <Ligand InChI>
InChI=1S/C28H22BrF2N5O7S3/c29-24-11-19-5-6-20(33-25(19)12-23(24)28(30,31)46(32,41)42)14-36(13-17-1-3-18(4-2-17)26-16-44-35-34-26)45(39,40)22-9-7-21(8-10-22)43-15-27(37)38/h1-12,16H,13-15H2,(H,37,38)(H
2,32,41,42)

> <Ligand InChI Key>
ODPZNNNFKVOUAH-UHFFFAOYSA-N

> <BindingDB MonomerID>
50362194

> <BindingDB Ligand Name>
CHEMBL1938827

> <Target Name>
Tyrosine-protein phosphatase non-receptor type 1

> <Target Source Organism According to Curator or DataSource>
Homo sapiens

> <IC50 (nM)>
41

> <Curation/DataSource>
ChEMBL

> <Article DOI>
10.1016/j.bmcl.2011.11.122

> <BindingDB Entry DOI>
10.7270/Q2ZS2X05

> <PMID>
22189136

> <Authors>
Patel, D; Jain, M; Shah, SR; Bahekar, R; Jadav, P; Joharapurkar, A; Dhanesha, N; Shaikh, M; Sairam, KV; Kapadnis, P

> <Institution>
M.S. University of Baroda

> <Link to Ligand in BindingDB>
http://www.bindingdb.org/bind/chemsearch/marvin/MolStructure.jsp?monomerid=50362194

> <Link to Ligand-Target Pair in BindingDB>
http://www.bindingdb.org/jsp/dbsearch/PrimarySearch_ki.jsp?energyterm=kJ/mole&tag=pol&polymerid=2622&target=Tyrosine-protein+phosphatase+non-receptor+type+1&column=ki&startPg=0&Increment=50&submit=Sea
rch
http://www.bindingdb.org/jsp/dbsearch/PrimarySearch_ki.jsp?energyterm=kJ/mole&tag=r21&monomerid=50362194&enzyme=Tyrosine-protein+phosphatase+non-receptor+type+1&column=ki&startPg=0&Increment=50&submit
=Search

> <PubChem CID of Ligand>
57392457

> <PubChem SID of Ligand>
136966256

> <ChEMBL ID of Ligand>
CHEMBL1938827

> <ZINC ID of Ligand>
ZINC95549754

> <Number of Protein Chains in Target (bigger than 1 implies a multichain complex)>
1

> <BindingDB Target Chain Sequence>
MEMEKEFEQIDKSGSWAAIYQDIRHEASDFPCRVAKLPKNKNRNRYRDVSPFDHSRIKLHQEDNDYINASLIKMEEAQRSYILTQGPLPNTCGHFWEMVWEQKSRGVVMLNRVMEKGSLKCAQYWPQKEEKEMIFEDTNLKLTLISEDIKSYYTVRQLELENLTTQETREILHFHYTTWPDFGVPESPASFLNFLFKVRE
SGSLSPEHGPVVVHCSAGIGRSGTFCLADTCLLLMDKRKDPSSVDIKKVLLEMRKFRMGLIQTADQLRFSYLAVIEGAKFIMGDSSVQDQWKELSHEDLEPPPEHIPPPPRPPKRILEPHNGKCREFFPNHQWVKEETQEDKDCPIKEEKGSPLNAAPYGIESMSQDTEVRSRVVGGSLRGAQAASPAKGEPSLPEKDED
HALSYWKPFLVNMCVATVLTAGAYLCYRFLFNSNT

> <PDB ID(s) of Target Chain>
1BZJ,1G7G,1GFY,1JF7,1KAK,1KAV,1LQF,1NL9,1NNY,1NO6,1NZ7,1OEM,1OEO,1OES,1OET,1OEU,1OEV,1ONY,1ONZ,1PH0,1PXH,1PYN,1Q1M,1Q6J,1Q6M,1Q6N,1Q6P,1Q6S,1Q6T,1QXK,1SUG,1T48,1T49,1T4J,1WAX,1XBO,2AZR,2B07,2BGD,2BGE,
2CM2,2CM3,2CM7,2CM8,2CMA,2CMB,2CMC,2CNE,2CNF,2CNG,2CNH,2CNI,2F6T,2F6V,2F6W,2F6Y,2F6Z,2F70,2F71,2FJN,2H4G,2H4K,2HB1,2HNP,2HNQ,2QBP,2QBQ,2QBR,2QBS,2VEU,2VEV,2VEW,2VEX,2VEY,2ZMM,2ZN7,3A5J,3CWE,3D9C,3EAX,
3EB1,3EU0,3I7Z,3I80,3SME,4BJO,4I8N,4QBW,4Y14,5K9V,5K9W,5KA0,5KA1,5T19,6B90,6NTP,6W30,7KEY,7KLX,7LFO,7MN9,7MNA,8DU7,8G65,8G67,8G68,8G69,8G6A,8SKL

> <UniProt (SwissProt) Recommended Name of Target Chain>
Tyrosine-protein phosphatase non-receptor type 1

> <UniProt (SwissProt) Entry Name of Target Chain>
PTN1_HUMAN

> <UniProt (SwissProt) Primary ID of Target Chain>
P18031

> <UniProt (SwissProt) Secondary ID(s) of Target Chain>
Q5TGD8 Q9BQV9 Q9NQQ4

$$$$
Molecule
  SciTegic10242319433D

 82 88  0  0  0  0            999 V2000
   -3.6456    1.4834   -0.0183 C   0  0
   -4.3386    0.1587   -0.0670 C   0  0
   -3.5671   -0.9239   -0.1549 C   0  0
   -2.1258   -0.8412   -0.2004 C   0  0
   -1.5067    0.3303   -0.1585 C   0  0
   -2.3066    1.5628   -0.0600 C   0  0
   -0.0281    0.3183   -0.1904 C   0  0
    0.6275   -0.9704   -0.2970 C   0  0
    1.9498   -1.0649   -0.2912 C   0  0
    2.8040    0.1253   -0.1705 C   0  0
    2.2053    1.3407   -0.0985 C   0  0
    0.7093    1.4262   -0.1085 C   0  0
   -5.9013    0.0357   -0.0258 C   0  0
   -8.0396   -0.7489    0.0219 O   0  0
   -6.6748   -1.0928   -0.0104 C   0  0
   -8.1298    0.5958    0.0238 C   0  0
   -6.8531    1.1486   -0.0005 C   0  0
   -6.6530    2.4627   -0.0050 C   0  0
   -7.8488    3.3361    0.0182 C   0  0
   -9.0760    2.7968    0.0399 C   0  0
   -9.2352    1.3301    0.0430 C   0  0
    4.2521   -0.0071   -0.1114 O   0  0
   -6.1785   -2.5584   -0.0225 C   0  0
   -7.2234   -3.6665   -0.0111 C   0  0
   -8.5329   -3.4197   -0.0040 C   0  0
   -9.4931   -4.5279    0.0051 C   0  0
   -9.0601   -5.7874    0.0059 C   0  0
   -7.6250   -6.0642   -0.0019 C   0  0
   -6.7541   -5.0573   -0.0099 C   0  0
    4.8950   -1.3578   -0.1525 C   0  0  1  0  0  0
    6.4571   -1.1001   -0.0855 C   0  0
    7.4024   -2.3122   -0.2035 C   0  0
    7.0296   -3.4589   -0.7776 C   0  0
    7.9726   -4.5839   -0.8661 C   0  0
    9.2075   -4.4633   -0.3813 C   0  0
    9.6272   -3.2064    0.2365 C   0  0
    8.7734   -2.1865    0.3196 C   0  0
    4.4863   -2.2660    1.0431 C   0  0
    3.6520   -1.8743    1.8655 O   0  0
    4.9887   -3.5558    1.1744 O   0  0
    2.9682    2.6402    0.0036 C   0  0
    4.3015    2.6934   -0.0116 C   0  0
    5.0029    3.9778    0.0600 C   0  0
    4.3125    5.1156    0.1392 C   0  0
    2.8486    5.0686    0.1609 C   0  0
    2.2120    3.8983    0.0968 C   0  0
    4.9694    6.3615    0.1973 O   0  0
    6.3986    6.2087    0.1514 C   0  0
   -4.2363    2.3968    0.0520 H   0  0
   -4.0396   -1.9054   -0.1937 H   0  0
   -1.5379   -1.7564   -0.2704 H   0  0
   -1.8137    2.5343   -0.0211 H   0  0
    0.0247   -1.8744   -0.3832 H   0  0
    2.4141   -2.0473   -0.3779 H   0  0
    0.2213    2.3990   -0.0486 H   0  0
   -5.6470    2.8816   -0.0250 H   0  0
   -7.7309    4.4197    0.0176 H   0  0
   -9.9551    3.4412    0.0553 H   0  0
  -10.2221    0.8676    0.0604 H   0  0
   -5.5768   -2.6894   -0.9219 H   0  0
   -5.5510   -2.6954    0.8581 H   0  0
   -8.8915   -2.3904   -0.0050 H   0  0
  -10.5632   -4.3206    0.0112 H   0  0
   -9.7747   -6.6104    0.0124 H   0  0
   -7.2681   -7.0941   -0.0011 H   0  0
   -5.6845   -5.2673   -0.0157 H   0  0
    4.6457   -1.8535   -1.0907 H   0  0
    6.7065   -0.4160   -0.8965 H   0  0
    6.6644   -0.6210    0.8714 H   0  0
    6.0226   -3.5614   -1.1821 H   0  0
    7.6601   -5.5194   -1.3299 H   0  0
    9.9035   -5.2998   -0.4451 H   0  0
   10.6387   -3.1035    0.6294 H   0  0
    9.0926   -1.2509    0.7788 H   0  0
    4.7165   -4.1251    0.3351 H   0  0
    4.8761    1.7696   -0.0782 H   0  0
    6.0925    4.0032    0.0485 H   0  0
    2.2770    5.9941    0.2298 H   0  0
    1.1224    3.8741    0.1136 H   0  0
    6.8711    7.1898    0.1983 H   0  0
    6.6820    5.7136   -0.7774 H   0  0
    6.7275    5.6067    0.9985 H   0  0
  5  6  1  0
 15 23  1  0
 11 12  1  0
 23 24  1  0
 12  7  2  0
 24 25  2  0
  5  7  1  0
 25 26  1  0
 13 17  1  0
 26 27  2  0
  6  1  2  0
 27 28  1  0
  1  2  1  0
 28 29  2  0
 29 24  1  0
  3  4  1  0
 30 22  1  0
 16 14  1  0
 30 31  1  0
 14 15  1  0
 31 32  1  0
 15 13  2  0
 32 33  2  0
  2 13  1  0
 33 34  1  0
  7  8  1  0
 34 35  2  0
 35 36  1  0
 16 17  1  0
 36 37  2  0
 37 32  1  0
  8  9  2  0
 30 38  1  0
 17 18  2  0
 38 39  2  0
  4  5  2  0
 38 40  1  0
 18 19  1  0
  9 10  1  0
 41 42  2  0
 19 20  2  0
 42 43  1  0
  2  3  2  0
 43 44  2  0
 20 21  1  0
 44 45  1  0
 21 16  2  0
 45 46  2  0
 46 41  1  0
 11 41  1  0
 10 11  2  0
 44 47  1  0
 10 22  1  0
 47 48  1  0
  1 49  1  0
  3 50  1  0
  4 51  1  0
  6 52  1  0
  8 53  1  0
  9 54  1  0
 12 55  1  0
 18 56  1  0
 19 57  1  0
 20 58  1  0
 21 59  1  0
 23 60  1  0
 23 61  1  0
 25 62  1  0
 26 63  1  0
 27 64  1  0
 28 65  1  0
 29 66  1  0
 30 67  1  0
 31 68  1  0
 31 69  1  0
 33 70  1  0
 34 71  1  0
 35 72  1  0
 36 73  1  0
 37 74  1  0
 40 75  1  0
 42 76  1  0
 43 77  1  0
 45 78  1  0
 46 79  1  0
 48 80  1  0
 48 81  1  0
 48 82  1  0
M  END
> <Name>
Molecule

> <Clean Energy>
49.7206

> <From>
www.bindingDB.org

> <BindingDB Reactant_set_id>
51015928

> <Ligand InChI>
InChI=1S/C43H34O5/c1-46-35-23-20-32(21-24-35)37-28-34(22-25-39(37)48-41(43(44)45)27-30-12-6-3-7-13-30)31-16-18-33(19-17-31)42-36-14-8-9-15-38(36)47-40(42)26-29-10-4-2-5-11-29/h2-25,28,41H,26-27H2,1H3,
(H,44,45)/t41-/m0/s1

> <Ligand InChI Key>
XYBNMZHCGYRUIC-RWYGWLOXSA-N

> <BindingDB MonomerID>
50416043

> <BindingDB Ligand Name>
CHEMBL1086227

> <Target Name>
Tyrosine-protein phosphatase non-receptor type 1

> <Target Source Organism According to Curator or DataSource>
Homo sapiens

> <IC50 (nM)>
42.66

> <Curation/DataSource>
ChEMBL

> <Article DOI>
10.1016/j.bmcl.2010.04.033

> <BindingDB Entry DOI>
10.7270/Q27D2WCC

> <PMID>
20452766

> <Authors>
Cheng, Y; Zhou, M; Tung, CH; Ji, M; Zhang, F

> <Institution>
Tsinghua University

> <Link to Ligand in BindingDB>
http://www.bindingdb.org/bind/chemsearch/marvin/MolStructure.jsp?monomerid=50416043

> <Link to Ligand-Target Pair in BindingDB>
http://www.bindingdb.org/jsp/dbsearch/PrimarySearch_ki.jsp?energyterm=kJ/mole&tag=pol&polymerid=2622&target=Tyrosine-protein+phosphatase+non-receptor+type+1&column=ki&startPg=0&Increment=50&submit=Sea
rch
http://www.bindingdb.org/jsp/dbsearch/PrimarySearch_ki.jsp?energyterm=kJ/mole&tag=r21&monomerid=50416043&enzyme=Tyrosine-protein+phosphatase+non-receptor+type+1&column=ki&startPg=0&Increment=50&submit
=Search

> <PubChem CID of Ligand>
9830685

> <PubChem SID of Ligand>
163365067

> <ChEMBL ID of Ligand>
CHEMBL1086227

> <ZINC ID of Ligand>
ZINC28758800

> <Number of Protein Chains in Target (bigger than 1 implies a multichain complex)>
1

> <BindingDB Target Chain Sequence>
MEMEKEFEQIDKSGSWAAIYQDIRHEASDFPCRVAKLPKNKNRNRYRDVSPFDHSRIKLHQEDNDYINASLIKMEEAQRSYILTQGPLPNTCGHFWEMVWEQKSRGVVMLNRVMEKGSLKCAQYWPQKEEKEMIFEDTNLKLTLISEDIKSYYTVRQLELENLTTQETREILHFHYTTWPDFGVPESPASFLNFLFKVRE
SGSLSPEHGPVVVHCSAGIGRSGTFCLADTCLLLMDKRKDPSSVDIKKVLLEMRKFRMGLIQTADQLRFSYLAVIEGAKFIMGDSSVQDQWKELSHEDLEPPPEHIPPPPRPPKRILEPHNGKCREFFPNHQWVKEETQEDKDCPIKEEKGSPLNAAPYGIESMSQDTEVRSRVVGGSLRGAQAASPAKGEPSLPEKDED
HALSYWKPFLVNMCVATVLTAGAYLCYRFLFNSNT

> <PDB ID(s) of Target Chain>
1BZJ,1G7G,1GFY,1JF7,1KAK,1KAV,1LQF,1NL9,1NNY,1NO6,1NZ7,1OEM,1OEO,1OES,1OET,1OEU,1OEV,1ONY,1ONZ,1PH0,1PXH,1PYN,1Q1M,1Q6J,1Q6M,1Q6N,1Q6P,1Q6S,1Q6T,1QXK,1SUG,1T48,1T49,1T4J,1WAX,1XBO,2AZR,2B07,2BGD,2BGE,
2CM2,2CM3,2CM7,2CM8,2CMA,2CMB,2CMC,2CNE,2CNF,2CNG,2CNH,2CNI,2F6T,2F6V,2F6W,2F6Y,2F6Z,2F70,2F71,2FJN,2H4G,2H4K,2HB1,2HNP,2HNQ,2QBP,2QBQ,2QBR,2QBS,2VEU,2VEV,2VEW,2VEX,2VEY,2ZMM,2ZN7,3A5J,3CWE,3D9C,3EAX,
3EB1,3EU0,3I7Z,3I80,3SME,4BJO,4I8N,4QBW,4Y14,5K9V,5K9W,5KA0,5KA1,5T19,6B90,6NTP,6W30,7KEY,7KLX,7LFO,7MN9,7MNA,8DU7,8G65,8G67,8G68,8G69,8G6A,8SKL

> <UniProt (SwissProt) Recommended Name of Target Chain>
Tyrosine-protein phosphatase non-receptor type 1

> <UniProt (SwissProt) Entry Name of Target Chain>
PTN1_HUMAN

> <UniProt (SwissProt) Primary ID of Target Chain>
P18031

> <UniProt (SwissProt) Secondary ID(s) of Target Chain>
Q5TGD8 Q9BQV9 Q9NQQ4

$$$$
Molecule
  SciTegic10242319433D

 82 88  0  0  0  0            999 V2000
    0.4323   -6.9185   -0.0106 C   0  0
    1.0176   -5.6888   -0.0057 C   0  0
   -0.9700   -6.7900   -0.0035 O   0  0
   -0.1093   -4.7332    0.0052 C   0  0
    8.2199   -2.1836    0.1755 C   0  0
   -1.2761   -5.4826    0.0039 C   0  0
    9.4183   -3.1880    0.0160 C   0  0
    6.9764   -2.6635    0.1130 C   0  0
   10.9042   -2.9606   -0.0917 O   0  0
   11.6263   -1.6699   -0.0645 C   0  0  1  0  0  0
   13.1194   -1.9847   -0.0553 C   0  0
    6.6864   -4.0776   -0.0402 C   0  0
    2.5360   -5.3079   -0.0120 C   0  0
    1.1432   -8.2826   -0.0190 C   0  0
    8.2706   -0.7229    0.4125 C   0  0
    5.2716   -4.5250   -0.0379 C   0  0
   11.2973   -0.6092   -1.1929 C   0  0
    9.0852   -4.4773   -0.1281 C   0  0
   13.9322   -1.2156   -0.5830 O   0  0
    7.6864   -4.9463   -0.1367 C   0  0
    2.8959   -4.0238    0.0452 C   0  0
    3.6307   -6.3169   -0.0885 C   0  0
    4.9157   -5.9456   -0.1041 C   0  0
    4.3033   -3.6165    0.0371 C   0  0
    9.1560   -0.1551    1.2265 C   0  0
    7.2750    0.1133   -0.2597 C   0  0
   13.5664   -3.1830    0.4844 O   0  0
    8.3095    2.0592    0.7449 C   0  0
    0.2399   -9.5262   -0.0103 C   0  0
   11.7646    0.8304   -0.8135 C   0  0
    7.3013    1.4353   -0.1171 C   0  0
    9.1766    1.2953    1.4013 C   0  0
   -0.1306   -3.4027    0.0103 C   0  0
    8.3787    3.4498    0.8818 O   0  0
   -2.4874   -4.9388    0.0078 C   0  0
   11.3901    1.8599   -1.5741 C   0  0
    0.8153  -10.7283   -0.0086 C   0  0
   -1.2304   -9.4415   -0.0041 C   0  0
   12.5372    1.1062    0.4251 C   0  0
    7.3946    4.0948    0.0642 C   0  0
   -1.4504   -2.7349    0.0162 C   0  0
   -2.5724   -3.4670    0.0146 C   0  0
   -1.9740  -10.5461    0.0029 C   0  0
   12.8620    2.3529    0.7632 C   0  0
   11.7578    3.2365   -1.1974 C   0  0
   -0.0036  -11.9458   -0.0007 C   0  0
   -1.3320  -11.8583    0.0047 C   0  0
   12.4544    3.4684   -0.0856 C   0  0
    6.1430   -1.9641    0.1799 H   0  0
   11.3961   -1.1981    0.8907 H   0  0
    1.7612   -8.3284   -0.9157 H   0  0
    1.7799   -8.3296    0.8645 H   0  0
   11.8005   -0.9091   -2.1121 H   0  0
   10.2196   -0.5952   -1.3560 H   0  0
    9.8821   -5.2118   -0.2439 H   0  0
    7.4725   -6.0116   -0.2229 H   0  0
    2.1222   -3.2579    0.0994 H   0  0
    3.3794   -7.3766   -0.1326 H   0  0
    5.6995   -6.7005   -0.1662 H   0  0
    4.5592   -2.5584    0.0931 H   0  0
    9.8708   -0.7759    1.7668 H   0  0
    6.5081   -0.3499   -0.8804 H   0  0
   13.2867   -3.2382    1.4950 H   0  0
    6.5733    2.0547   -0.6410 H   0  0
    9.9049    1.7519    2.0715 H   0  0
    0.7933   -2.8244    0.0102 H   0  0
   -3.3850   -5.5572    0.0061 H   0  0
   10.8091    1.6823   -2.4790 H   0  0
    1.9024  -10.8077   -0.0131 H   0  0
   -1.7147   -8.4650   -0.0052 H   0  0
   12.8419    0.2782    1.0650 H   0  0
    7.4693    5.1750    0.1888 H   0  0
    6.3999    3.7631    0.3622 H   0  0
    7.5648    3.8375   -0.9813 H   0  0
   -1.5102   -1.6465    0.0217 H   0  0
   -3.5455   -2.9758    0.0183 H   0  0
   -3.0614  -10.4712    0.0073 H   0  0
   13.4320    2.5401    1.6732 H   0  0
   11.4580    4.0701   -1.8324 H   0  0
    0.4769  -12.9241    0.0008 H   0  0
   -1.9392  -12.7636    0.0103 H   0  0
   12.7194    4.4892    0.1897 H   0  0
  2  1  2  0
  3  1  1  0
  4  2  1  0
  5  8  2  0
  6  3  1  0
  7 18  2  0
  8 12  1  0
  9  7  1  0
  9 10  1  0
 11 10  1  0
 12 16  1  0
 13  2  1  0
 14  1  1  0
 15  5  1  0
 16 23  1  0
 17 10  1  0
 18 20  1  0
 19 11  2  0
 20 12  2  0
 21 13  2  0
 22 13  1  0
 23 22  2  0
 24 21  1  0
 25 15  2  0
 26 15  1  0
 27 11  1  0
 28 31  1  0
 29 14  1  0
 30 17  1  0
 31 26  2  0
 32 25  1  0
 33  4  2  0
 34 28  1  0
 35  6  2  0
 36 30  2  0
 37 29  2  0
 38 29  1  0
 39 30  1  0
 40 34  1  0
 41 33  1  0
 42 35  1  0
 43 38  2  0
 44 39  2  0
 45 36  1  0
 46 37  1  0
 47 43  1  0
 48 44  1  0
  4  6  1  0
 41 42  2  0
 24 16  2  0
 46 47  2  0
  5  7  1  0
 32 28  2  0
 45 48  2  0
  8 49  1  0
 10 50  1  0
 14 51  1  0
 14 52  1  0
 17 53  1  0
 17 54  1  0
 18 55  1  0
 20 56  1  0
 21 57  1  0
 22 58  1  0
 23 59  1  0
 24 60  1  0
 25 61  1  0
 26 62  1  0
 27 63  1  0
 31 64  1  0
 32 65  1  0
 33 66  1  0
 35 67  1  0
 36 68  1  0
 37 69  1  0
 38 70  1  0
 39 71  1  0
 40 72  1  0
 40 73  1  0
 40 74  1  0
 41 75  1  0
 42 76  1  0
 43 77  1  0
 44 78  1  0
 45 79  1  0
 46 80  1  0
 47 81  1  0
 48 82  1  0
M  END
> <Name>
Molecule

> <Clean Energy>
63.7575

> <From>
www.bindingDB.org

> <BindingDB Reactant_set_id>
50154662

> <Ligand InChI>
InChI=1S/C43H34O5/c1-46-35-23-20-32(21-24-35)37-28-34(22-25-39(37)48-41(43(44)45)27-30-12-6-3-7-13-30)31-16-18-33(19-17-31)42-36-14-8-9-15-38(36)47-40(42)26-29-10-4-2-5-11-29/h2-25,28,41H,26-27H2,1H3,
(H,44,45)

> <Ligand InChI Key>
XYBNMZHCGYRUIC-UHFFFAOYSA-N

> <BindingDB MonomerID>
50086988

> <BindingDB Ligand Name>
2-[4-(2-Benzyl-benzofuran-3-yl)-4''-methoxy-[1,1';3',1'']terphenyl-4'-yloxy]-3-phenyl-propionic acid::CHEMBL440767

> <Target Name>
Tyrosine-protein phosphatase non-receptor type 1

> <Target Source Organism According to Curator or DataSource>
Homo sapiens

> <IC50 (nM)>
43

> <Curation/DataSource>
ChEMBL

> <Article DOI>
10.1021/jm990560c

> <BindingDB Entry DOI>
10.7270/Q2W958FT

> <PMID>
10753467

> <Authors>
Malamas, MS; Sredy, J; Moxham, C; Katz, A; Xu, W; McDevitt, R; Adebayo, FO; Sawicki, DR; Seestaller, L; Sullivan, D; Taylor, JR

> <Institution>
Wyeth-Ayerst Research

> <Link to Ligand in BindingDB>
http://www.bindingdb.org/bind/chemsearch/marvin/MolStructure.jsp?monomerid=50086988

> <Link to Ligand-Target Pair in BindingDB>
http://www.bindingdb.org/jsp/dbsearch/PrimarySearch_ki.jsp?energyterm=kJ/mole&tag=pol&polymerid=2622&target=Tyrosine-protein+phosphatase+non-receptor+type+1&column=ki&startPg=0&Increment=50&submit=Sea
rch
http://www.bindingdb.org/jsp/dbsearch/PrimarySearch_ki.jsp?energyterm=kJ/mole&tag=r21&monomerid=50086988&enzyme=Tyrosine-protein+phosphatase+non-receptor+type+1&column=ki&startPg=0&Increment=50&submit
=Search

> <PubChem CID of Ligand>
22620031

> <PubChem SID of Ligand>
103986099

> <ChEMBL ID of Ligand>
CHEMBL440767

> <ZINC ID of Ligand>
ZINC28758803

> <Number of Protein Chains in Target (bigger than 1 implies a multichain complex)>
1

> <BindingDB Target Chain Sequence>
MEMEKEFEQIDKSGSWAAIYQDIRHEASDFPCRVAKLPKNKNRNRYRDVSPFDHSRIKLHQEDNDYINASLIKMEEAQRSYILTQGPLPNTCGHFWEMVWEQKSRGVVMLNRVMEKGSLKCAQYWPQKEEKEMIFEDTNLKLTLISEDIKSYYTVRQLELENLTTQETREILHFHYTTWPDFGVPESPASFLNFLFKVRE
SGSLSPEHGPVVVHCSAGIGRSGTFCLADTCLLLMDKRKDPSSVDIKKVLLEMRKFRMGLIQTADQLRFSYLAVIEGAKFIMGDSSVQDQWKELSHEDLEPPPEHIPPPPRPPKRILEPHNGKCREFFPNHQWVKEETQEDKDCPIKEEKGSPLNAAPYGIESMSQDTEVRSRVVGGSLRGAQAASPAKGEPSLPEKDED
HALSYWKPFLVNMCVATVLTAGAYLCYRFLFNSNT

> <PDB ID(s) of Target Chain>
1BZJ,1G7G,1GFY,1JF7,1KAK,1KAV,1LQF,1NL9,1NNY,1NO6,1NZ7,1OEM,1OEO,1OES,1OET,1OEU,1OEV,1ONY,1ONZ,1PH0,1PXH,1PYN,1Q1M,1Q6J,1Q6M,1Q6N,1Q6P,1Q6S,1Q6T,1QXK,1SUG,1T48,1T49,1T4J,1WAX,1XBO,2AZR,2B07,2BGD,2BGE,
2CM2,2CM3,2CM7,2CM8,2CMA,2CMB,2CMC,2CNE,2CNF,2CNG,2CNH,2CNI,2F6T,2F6V,2F6W,2F6Y,2F6Z,2F70,2F71,2FJN,2H4G,2H4K,2HB1,2HNP,2HNQ,2QBP,2QBQ,2QBR,2QBS,2VEU,2VEV,2VEW,2VEX,2VEY,2ZMM,2ZN7,3A5J,3CWE,3D9C,3EAX,
3EB1,3EU0,3I7Z,3I80,3SME,4BJO,4I8N,4QBW,4Y14,5K9V,5K9W,5KA0,5KA1,5T19,6B90,6NTP,6W30,7KEY,7KLX,7LFO,7MN9,7MNA,8DU7,8G65,8G67,8G68,8G69,8G6A,8SKL

> <UniProt (SwissProt) Recommended Name of Target Chain>
Tyrosine-protein phosphatase non-receptor type 1

> <UniProt (SwissProt) Entry Name of Target Chain>
PTN1_HUMAN

> <UniProt (SwissProt) Primary ID of Target Chain>
P18031

> <UniProt (SwissProt) Secondary ID(s) of Target Chain>
Q5TGD8 Q9BQV9 Q9NQQ4

$$$$
Molecule
  SciTegic10242319433D

 70 74  0  0  0  0            999 V2000
    5.4587  -25.6528   -0.0678 C   0  0
    5.4761  -27.1004    0.1315 C   0  0
    6.6333  -27.7154    0.3045 C   0  0
    7.9120  -26.9908    0.2676 C   0  0
    7.9181  -25.6701    0.0514 C   0  0
    6.6100  -24.9703   -0.0864 C   0  0
    9.3436  -28.0339    0.2018 S   0  0
   11.0641  -28.0941   -0.2042 N   0  0
    9.3555  -27.3888   -1.1562 O   0  0
    8.7962  -29.4446    0.0679 O   0  0
   12.1689  -27.3701    0.3914 C   0  0  3  0  0  0
   13.3709  -27.9230   -0.5344 C   0  0
   14.8068  -27.3836   -0.3820 C   0  0
   11.9841  -25.8770    0.3356 C   0  0
   15.8558  -28.1667   -0.6683 C   0  0
   17.2396  -27.6142   -0.6108 C   0  0
   17.4196  -26.3274   -0.2996 C   0  0
   16.2714  -25.5054    0.0038 C   0  0
   15.0485  -26.0050   -0.0294 C   0  0
   18.7931  -25.6806   -0.2877 C   0  0  2  0  0  0
   19.9150  -26.5326    0.2450 C   0  0
   20.9479  -25.5239    0.0281 C   0  0
   20.4382  -24.2244   -0.1369 N   0  0
   18.7893  -23.9594    0.3828 S   0  0
   22.1280  -25.8142   -0.1987 O   0  0
   17.8456  -23.2610   -0.5727 O   0  0
   19.6783  -22.7930    0.7739 O   0  0
   12.5569  -25.1040    1.1699 N   0  0
   11.1981  -25.1512   -0.5598 N   0  0
   11.3763  -23.8230   -0.1572 C   0  0
   12.1951  -23.7893    0.8896 C   0  0
   10.7076  -22.6114   -0.8025 C   0  0
   11.2404  -21.2251   -0.2857 C   0  0
   12.7073  -20.9766   -0.7469 C   0  0
   13.1962  -19.6020   -0.3528 C   0  0
   14.4816  -19.2944   -0.5220 C   0  0
   14.9771  -17.9650   -0.1568 C   0  0
   14.1402  -17.0559    0.3398 C   0  0
   12.7235  -17.3881    0.5246 C   0  0
   12.2729  -18.6001    0.1980 C   0  0
    4.3291  -27.8095    0.1390 F   0  0
    4.5112  -25.1305   -0.2007 H   0  0
    6.6398  -28.7913    0.4796 H   0  0
    8.8564  -25.1203   -0.0221 H   0  0
    6.5903  -23.8868   -0.2041 H   0  0
   11.3284  -29.1244   -0.0879 H   0  0
   12.3134  -27.6908    1.4231 H   0  0
   13.4245  -28.9980   -0.3621 H   0  0
   13.0777  -27.7342   -1.5671 H   0  0
   15.6972  -29.2093   -0.9437 H   0  0
   18.0964  -28.2543   -0.8208 H   0  0
   16.4158  -24.4568    0.2641 H   0  0
   14.2032  -25.3616    0.2149 H   0  0
   19.0351  -25.5533   -1.3429 H   0  0
   20.0756  -27.4390   -0.3388 H   0  0
   19.7891  -26.7941    1.2957 H   0  0
   21.0284  -23.4378   -0.5586 H   0  0
   10.5996  -25.5229   -1.3652 H   0  0
   12.5218  -22.8993    1.4274 H   0  0
   10.8757  -22.6618   -1.8783 H   0  0
    9.6381  -22.6632   -0.5986 H   0  0
   10.6051  -20.4315   -0.6789 H   0  0
   11.2039  -21.2143    0.8037 H   0  0
   13.3527  -21.7253   -0.2875 H   0  0
   12.7562  -21.0703   -1.8317 H   0  0
   15.1673  -20.0349   -0.9338 H   0  0
   16.0306  -17.7199   -0.2916 H   0  0
   14.5077  -16.0656    0.6089 H   0  0
   12.0382  -16.6435    0.9293 H   0  0
   11.2207  -18.8472    0.3395 H   0  0
  4  5  2  0
  7 10  2  0
  2  3  2  0
 11  8  1  0
  5  6  1  0
 21 22  1  0
 22 23  1  0
 23 24  1  0
 24 20  1  0
 20 17  1  0
 11 12  1  0
 22 25  2  0
  6  1  2  0
 24 26  2  0
 12 13  1  0
 24 27  2  0
 14 28  2  0
  1  2  1  0
 11 14  1  0
 28 31  1  0
 30 29  1  0
 29 14  1  0
  4  7  1  0
 13 15  2  0
 30 31  2  0
  3  4  1  0
 30 32  1  0
 15 16  1  0
 32 33  1  0
  7  8  1  0
 33 34  1  0
 16 17  2  0
 34 35  1  0
 35 36  2  0
 17 18  1  0
 36 37  1  0
  7  9  2  0
 37 38  2  0
 18 19  2  0
 38 39  1  0
 19 13  1  0
 39 40  2  0
 40 35  1  0
 20 21  1  0
  2 41  1  0
  1 42  1  0
  3 43  1  0
  5 44  1  0
  6 45  1  0
  8 46  1  0
 11 47  1  0
 12 48  1  0
 12 49  1  0
 15 50  1  0
 16 51  1  0
 18 52  1  0
 19 53  1  0
 20 54  1  0
 21 55  1  0
 21 56  1  0
 23 57  1  0
 29 58  1  0
 31 59  1  0
 32 60  1  0
 32 61  1  0
 33 62  1  0
 33 63  1  0
 34 64  1  0
 34 65  1  0
 36 66  1  0
 37 67  1  0
 38 68  1  0
 39 69  1  0
 40 70  1  0
M  END
> <Name>
Molecule

> <Clean Energy>
208.283

> <From>
www.bindingDB.org

> <BindingDB Reactant_set_id>
50406909

> <Ligand InChI>
InChI=1S/C29H29FN4O5S2/c30-23-9-5-11-25(17-23)40(36,37)33-26(29-31-19-24(32-29)10-4-8-20-6-2-1-3-7-20)16-21-12-14-22(15-13-21)27-18-28(35)34-41(27,38)39/h1-3,5-7,9,11-15,17,19,26-27,33H,4,8,10,16,18H2
,(H,31,32)(H,34,35)

> <Ligand InChI Key>
AYYVCIVIOZHWEO-UHFFFAOYSA-N

> <BindingDB MonomerID>
50228024

> <BindingDB Ligand Name>
3-fluoro-N-{1-[5-(3-phenyl-propyl)-1H-imidazol-2-yl]-2-[4-(1,1,3-trioxo-1lambda6-isothiazolidin-5-yl)-phenyl]-ethyl}-benzenesulfonamide::CHEMBL253500

> <Target Name>
Tyrosine-protein phosphatase non-receptor type 1

> <Target Source Organism According to Curator or DataSource>
Homo sapiens

> <IC50 (nM)>
43

> <Curation/DataSource>
ChEMBL

> <Article DOI>
10.1016/j.bmcl.2007.11.012

> <BindingDB Entry DOI>
10.7270/Q2BV7GCQ

> <PMID>
18037290

> <Authors>
Douty, B; Wayland, B; Ala, PJ; Bower, MJ; Pruitt, J; Bostrom, L; Wei, M; Klabe, R; Gonneville, L; Wynn, R; Burn, TC; Liu, PC; Combs, AP; Yue, EW

> <Institution>
Incyte Corporation

> <Link to Ligand in BindingDB>
http://www.bindingdb.org/bind/chemsearch/marvin/MolStructure.jsp?monomerid=50228024

> <Link to Ligand-Target Pair in BindingDB>
http://www.bindingdb.org/jsp/dbsearch/PrimarySearch_ki.jsp?energyterm=kJ/mole&tag=pol&polymerid=2622&target=Tyrosine-protein+phosphatase+non-receptor+type+1&column=ki&startPg=0&Increment=50&submit=Sea
rch
http://www.bindingdb.org/jsp/dbsearch/PrimarySearch_ki.jsp?energyterm=kJ/mole&tag=r21&monomerid=50228024&enzyme=Tyrosine-protein+phosphatase+non-receptor+type+1&column=ki&startPg=0&Increment=50&submit
=Search

> <PubChem CID of Ligand>
44446162

> <PubChem SID of Ligand>
104097711

> <ChEMBL ID of Ligand>
CHEMBL253500

> <ZINC ID of Ligand>
ZINC28978078

> <Number of Protein Chains in Target (bigger than 1 implies a multichain complex)>
1

> <BindingDB Target Chain Sequence>
MEMEKEFEQIDKSGSWAAIYQDIRHEASDFPCRVAKLPKNKNRNRYRDVSPFDHSRIKLHQEDNDYINASLIKMEEAQRSYILTQGPLPNTCGHFWEMVWEQKSRGVVMLNRVMEKGSLKCAQYWPQKEEKEMIFEDTNLKLTLISEDIKSYYTVRQLELENLTTQETREILHFHYTTWPDFGVPESPASFLNFLFKVRE
SGSLSPEHGPVVVHCSAGIGRSGTFCLADTCLLLMDKRKDPSSVDIKKVLLEMRKFRMGLIQTADQLRFSYLAVIEGAKFIMGDSSVQDQWKELSHEDLEPPPEHIPPPPRPPKRILEPHNGKCREFFPNHQWVKEETQEDKDCPIKEEKGSPLNAAPYGIESMSQDTEVRSRVVGGSLRGAQAASPAKGEPSLPEKDED
HALSYWKPFLVNMCVATVLTAGAYLCYRFLFNSNT

> <PDB ID(s) of Target Chain>
1BZJ,1G7G,1GFY,1JF7,1KAK,1KAV,1LQF,1NL9,1NNY,1NO6,1NZ7,1OEM,1OEO,1OES,1OET,1OEU,1OEV,1ONY,1ONZ,1PH0,1PXH,1PYN,1Q1M,1Q6J,1Q6M,1Q6N,1Q6P,1Q6S,1Q6T,1QXK,1SUG,1T48,1T49,1T4J,1WAX,1XBO,2AZR,2B07,2BGD,2BGE,
2CM2,2CM3,2CM7,2CM8,2CMA,2CMB,2CMC,2CNE,2CNF,2CNG,2CNH,2CNI,2F6T,2F6V,2F6W,2F6Y,2F6Z,2F70,2F71,2FJN,2H4G,2H4K,2HB1,2HNP,2HNQ,2QBP,2QBQ,2QBR,2QBS,2VEU,2VEV,2VEW,2VEX,2VEY,2ZMM,2ZN7,3A5J,3CWE,3D9C,3EAX,
3EB1,3EU0,3I7Z,3I80,3SME,4BJO,4I8N,4QBW,4Y14,5K9V,5K9W,5KA0,5KA1,5T19,6B90,6NTP,6W30,7KEY,7KLX,7LFO,7MN9,7MNA,8DU7,8G65,8G67,8G68,8G69,8G6A,8SKL

> <UniProt (SwissProt) Recommended Name of Target Chain>
Tyrosine-protein phosphatase non-receptor type 1

> <UniProt (SwissProt) Entry Name of Target Chain>
PTN1_HUMAN

> <UniProt (SwissProt) Primary ID of Target Chain>
P18031

> <UniProt (SwissProt) Secondary ID(s) of Target Chain>
Q5TGD8 Q9BQV9 Q9NQQ4

$$$$
Molecule
  SciTegic10242319433D

 57 61  0  0  0  0            999 V2000
   17.0617  -16.7242   -0.1464 C   0  0
   17.0223  -18.0997   -0.6660 C   0  0
   18.0775  -18.9034   -0.5263 C   0  0
   19.2907  -18.4051    0.1355 C   0  0
   19.3164  -17.1651    0.6067 C   0  0
   18.1615  -16.3073    0.4709 C   0  0
   15.8239  -15.8318   -0.3535 C   0  0
   20.5246  -19.2544    0.3004 C   0  0  1  0  0  0
   15.6579  -14.4318    0.4091 C   0  0  2  0  0  0
   14.2742  -13.8150    0.2446 N   0  0
   16.7807  -13.3950    0.1672 C   0  0
   17.9858  -13.7137   -0.1185 N   0  0
   16.6377  -11.9654    0.2966 N   0  0
   17.9205  -11.4929    0.0689 C   0  0
   18.7358  -12.5739   -0.1864 C   0  0
   20.0338  -12.4739   -0.4202 C   0  0
   20.6165  -11.1207   -0.4178 C   0  0
   19.8316  -10.0587   -0.1789 C   0  0
   18.3805  -10.2447    0.0883 C   0  0
   20.4601  -20.9505   -0.3973 S   0  0
   22.1749  -20.8134   -0.0389 N   0  0
   22.7282  -19.5468   -0.0003 C   0  0
   21.7702  -18.4884   -0.1303 C   0  0
   20.9929  -22.3011    0.0441 O   0  0
   19.3132  -21.2418    0.5497 O   0  0
   23.9333  -19.3400    0.1814 O   0  0
   12.9954  -14.8752    0.9015 S   0  0
   11.3166  -15.3025    0.4813 C   0  0
   13.1088  -15.6310   -0.4051 O   0  0
   12.3149  -13.5426    1.1556 O   0  0
   10.3174  -14.4189    0.5028 C   0  0
    8.9558  -14.8563    0.1233 C   0  0
    8.7321  -16.1195   -0.2371 C   0  0
    9.8278  -17.0786   -0.2566 C   0  0
   11.0523  -16.6904    0.0840 C   0  0
    7.9389  -13.9844    0.1336 F   0  0
   16.1260  -18.4642   -1.1679 H   0  0
   18.0399  -19.9260   -0.9018 H   0  0
   20.2141  -16.7911    1.0992 H   0  0
   18.1934  -15.2987    0.8830 H   0  0
   14.9604  -16.4362   -0.0759 H   0  0
   15.7832  -15.6069   -1.4193 H   0  0
   20.6333  -19.3929    1.3761 H   0  0
   15.7295  -14.6798    1.4681 H   0  0
   14.0887  -13.6524   -0.7965 H   0  0
   15.7533  -11.4044    0.5158 H   0  0
   20.6467  -13.3557   -0.6069 H   0  0
   21.6807  -10.9827   -0.6092 H   0  0
   20.2593   -9.0561   -0.1807 H   0  0
   17.7245   -9.3980    0.2904 H   0  0
   22.7718  -21.6824    0.1438 H   0  0
   21.9888  -17.6532    0.5351 H   0  0
   21.6952  -18.1266   -1.1558 H   0  0
   10.5020  -13.3857    0.7968 H   0  0
    7.7274  -16.4354   -0.5179 H   0  0
    9.6441  -18.1123   -0.5498 H   0  0
   11.8698  -17.4111    0.0682 H   0  0
 17 18  2  0
  9  7  1  0
 18 19  1  0
 19 14  2  0
  8 20  1  0
  4  5  2  0
  9 10  1  0
  2  3  2  0
  9 11  1  0
 20 21  1  0
 21 22  1  0
 22 23  1  0
  8 23  1  0
 11 12  2  0
 20 24  2  0
  5  6  1  0
 20 25  2  0
  6  1  2  0
 22 26  2  0
 12 15  1  0
 10 27  1  0
 14 13  1  0
 27 28  1  0
 13 11  1  0
 27 29  2  0
  1  2  1  0
 27 30  2  0
  1  7  1  0
 28 31  2  0
 14 15  1  0
 31 32  1  0
  3  4  1  0
 32 33  2  0
 15 16  2  0
 33 34  1  0
  4  8  1  0
 34 35  2  0
 35 28  1  0
 16 17  1  0
 32 36  1  0
  2 37  1  0
  3 38  1  0
  5 39  1  0
  6 40  1  0
  7 41  1  0
  7 42  1  0
  8 43  1  0
  9 44  1  0
 10 45  1  0
 13 46  1  0
 16 47  1  0
 17 48  1  0
 18 49  1  0
 19 50  1  0
 21 51  1  0
 23 52  1  0
 23 53  1  0
 31 54  1  0
 33 55  1  0
 34 56  1  0
 35 57  1  0
M  END
> <Name>
Molecule

> <Clean Energy>
223.711

> <From>
www.bindingDB.org

> <BindingDB Reactant_set_id>
50350913

> <Ligand InChI>
InChI=1S/C24H21FN4O5S2/c25-17-4-3-5-18(13-17)35(31,32)28-21(24-26-19-6-1-2-7-20(19)27-24)12-15-8-10-16(11-9-15)22-14-23(30)29-36(22,33)34/h1-11,13,21-22,28H,12,14H2,(H,26,27)(H,29,30)

> <Ligand InChI Key>
RNRQTNIFZXXHQT-UHFFFAOYSA-N

> <BindingDB MonomerID>
50189635

> <BindingDB Ligand Name>
CHEMBL424880::N-((1S)-1-(1H-benzimidazol-2yl)-2-4-[(5S)-1,1-dioxo-3-oxoisothiazolidin-5-yl]phenylethyl)3-fluorobenzenesulfonamide

> <Target Name>
Tyrosine-protein phosphatase non-receptor type 1

> <Target Source Organism According to Curator or DataSource>
Homo sapiens

> <IC50 (nM)>
43

> <Curation/DataSource>
ChEMBL

> <Article DOI>
10.1021/jm0600904

> <BindingDB Entry DOI>
10.7270/Q2JQ10M8

> <PMID>
16789735

> <Authors>
Combs, AP; Zhu, W; Crawley, ML; Glass, B; Polam, P; Sparks, RB; Modi, D; Takvorian, A; McLaughlin, E; Yue, EW; Wasserman, Z; Bower, M; Wei, M; Rupar, M; Ala, PJ; Reid, BM; Ellis, D; Gonneville, L; Emm
, T; Taylor, N; Yeleswaram, S; Li, Y; Wynn, R; Burn, TC; Hollis, G; Liu, PC; Metcalf, B

> <Institution>
Incyte Corporation

> <Link to Ligand in BindingDB>
http://www.bindingdb.org/bind/chemsearch/marvin/MolStructure.jsp?monomerid=50189635

> <Link to Ligand-Target Pair in BindingDB>
http://www.bindingdb.org/jsp/dbsearch/PrimarySearch_ki.jsp?energyterm=kJ/mole&tag=pol&polymerid=2622&target=Tyrosine-protein+phosphatase+non-receptor+type+1&column=ki&startPg=0&Increment=50&submit=Sea
rch
http://www.bindingdb.org/jsp/dbsearch/PrimarySearch_ki.jsp?energyterm=kJ/mole&tag=r21&monomerid=50189635&enzyme=Tyrosine-protein+phosphatase+non-receptor+type+1&column=ki&startPg=0&Increment=50&submit
=Search

> <PubChem CID of Ligand>
21879425

> <PubChem SID of Ligand>
104073156

> <ChEMBL ID of Ligand>
CHEMBL424880

> <ZINC ID of Ligand>
ZINC36088935

> <Number of Protein Chains in Target (bigger than 1 implies a multichain complex)>
1

> <BindingDB Target Chain Sequence>
MEMEKEFEQIDKSGSWAAIYQDIRHEASDFPCRVAKLPKNKNRNRYRDVSPFDHSRIKLHQEDNDYINASLIKMEEAQRSYILTQGPLPNTCGHFWEMVWEQKSRGVVMLNRVMEKGSLKCAQYWPQKEEKEMIFEDTNLKLTLISEDIKSYYTVRQLELENLTTQETREILHFHYTTWPDFGVPESPASFLNFLFKVRE
SGSLSPEHGPVVVHCSAGIGRSGTFCLADTCLLLMDKRKDPSSVDIKKVLLEMRKFRMGLIQTADQLRFSYLAVIEGAKFIMGDSSVQDQWKELSHEDLEPPPEHIPPPPRPPKRILEPHNGKCREFFPNHQWVKEETQEDKDCPIKEEKGSPLNAAPYGIESMSQDTEVRSRVVGGSLRGAQAASPAKGEPSLPEKDED
HALSYWKPFLVNMCVATVLTAGAYLCYRFLFNSNT

> <PDB ID(s) of Target Chain>
1BZJ,1G7G,1GFY,1JF7,1KAK,1KAV,1LQF,1NL9,1NNY,1NO6,1NZ7,1OEM,1OEO,1OES,1OET,1OEU,1OEV,1ONY,1ONZ,1PH0,1PXH,1PYN,1Q1M,1Q6J,1Q6M,1Q6N,1Q6P,1Q6S,1Q6T,1QXK,1SUG,1T48,1T49,1T4J,1WAX,1XBO,2AZR,2B07,2BGD,2BGE,
2CM2,2CM3,2CM7,2CM8,2CMA,2CMB,2CMC,2CNE,2CNF,2CNG,2CNH,2CNI,2F6T,2F6V,2F6W,2F6Y,2F6Z,2F70,2F71,2FJN,2H4G,2H4K,2HB1,2HNP,2HNQ,2QBP,2QBQ,2QBR,2QBS,2VEU,2VEV,2VEW,2VEX,2VEY,2ZMM,2ZN7,3A5J,3CWE,3D9C,3EAX,
3EB1,3EU0,3I7Z,3I80,3SME,4BJO,4I8N,4QBW,4Y14,5K9V,5K9W,5KA0,5KA1,5T19,6B90,6NTP,6W30,7KEY,7KLX,7LFO,7MN9,7MNA,8DU7,8G65,8G67,8G68,8G69,8G6A,8SKL

> <UniProt (SwissProt) Recommended Name of Target Chain>
Tyrosine-protein phosphatase non-receptor type 1

> <UniProt (SwissProt) Entry Name of Target Chain>
PTN1_HUMAN

> <UniProt (SwissProt) Primary ID of Target Chain>
P18031

> <UniProt (SwissProt) Secondary ID(s) of Target Chain>
Q5TGD8 Q9BQV9 Q9NQQ4

$$$$
Molecule
  SciTegic10242319433D

 75 81  0  0  0  0            999 V2000
   13.4276   -2.2247    0.2750 N   0  0
   14.4898   -3.1759    0.2234 C   0  0
   14.0120   -0.9132    0.1524 C   0  0
   -2.4576   -4.3638    0.0105 C   0  0
   -1.8644   -3.1189    0.0048 C   0  0
   -4.1596   -4.1800   -0.0069 S   0  0
    6.8560   -1.5155    0.1601 C   0  0
   15.4722   -1.0909    0.0370 C   0  0
   15.7484   -2.4659    0.0801 C   0  0
    8.3273   -1.1588    0.0987 O   0  0
   -2.9783   -2.0070   -0.0152 C   0  0
   -4.2904   -2.5632   -0.0174 C   0  0
    6.0006   -0.5045   -0.0655 C   0  0
    6.2257   -2.9005    0.4356 C   0  0
   12.0015   -2.6196    0.4246 C   0  0
    3.9976   -1.9259    0.1223 C   0  0
    9.3226   -3.1777   -0.9508 C   0  0
    9.4050   -2.1838    0.2197 C   0  0  1  0  0  0
    4.8970   -3.0382    0.4014 C   0  0
    4.5150   -0.7143   -0.0830 C   0  0
   -0.3021   -2.7935    0.0211 C   0  0
   10.8806   -1.5222    0.2418 C   0  0
   -1.7530   -5.7556    0.0238 C   0  0
   13.4190    0.1707    0.1505 O   0  0
   14.3627   -4.4027    0.2927 O   0  0
    2.5098   -2.1890    0.0867 C   0  0
    8.3917   -3.0955   -1.7575 O   0  0
    0.1483   -1.5344   -0.0890 C   0  0
    0.7268   -3.8493    0.1753 C   0  0
    2.0308   -3.5651    0.2118 C   0  0
    1.6123   -1.2125   -0.0644 C   0  0
    7.1975   -4.4833    0.8942 Br  0  0
    6.6932    1.2331   -0.4067 Br  0  0
   10.1804   -4.2756   -1.0342 O   0  0
   -2.6291   -7.0373    0.0135 C   0  0
   16.9783   -2.9607    0.0002 C   0  0
   16.4284   -0.1771   -0.0866 C   0  0
   -2.8310   -0.6846   -0.0184 C   0  0
   -5.4057   -1.8449   -0.0237 C   0  0
   -3.9623   -7.0078    0.0077 C   0  0
   -1.9562   -8.3438    0.0105 C   0  0
   17.8304   -0.6723   -0.1802 C   0  0
   18.0887   -1.9898   -0.1394 C   0  0
   -4.0488    0.1666   -0.0281 C   0  0
   -5.2686   -0.3866   -0.0299 C   0  0
   -2.6665   -9.4725    0.0023 C   0  0
   -4.7461   -8.2447   -0.0013 C   0  0
   -4.1280   -9.4221   -0.0037 C   0  0
   11.8074   -3.4002   -0.3110 H   0  0
   11.8870   -3.0290    1.4283 H   0  0
    9.2579   -2.7323    1.1501 H   0  0
    4.4683   -4.0225    0.5901 H   0  0
    3.8525    0.1318   -0.2653 H   0  0
   11.0480   -0.9978   -0.6990 H   0  0
   10.9393   -0.8142    1.0685 H   0  0
   -1.1121   -5.7987   -0.8568 H   0  0
   -1.1386   -5.7950    0.9233 H   0  0
   -0.5706   -0.7226   -0.1994 H   0  0
    0.4094   -4.8885    0.2613 H   0  0
    2.7513   -4.3733    0.3371 H   0  0
    1.9443   -0.1797   -0.1701 H   0  0
   11.1750   -3.9413   -1.0731 H   0  0
   17.1627   -4.0344    0.0357 H   0  0
   16.1976    0.8877   -0.1183 H   0  0
   -1.8380   -0.2352   -0.0140 H   0  0
   -6.3860   -2.3214   -0.0241 H   0  0
   -4.4772   -6.0471    0.0097 H   0  0
   -0.8672   -8.3908    0.0150 H   0  0
   18.6508    0.0381   -0.2822 H   0  0
   19.1168   -2.3452   -0.2092 H   0  0
   -3.9485    1.2519   -0.0338 H   0  0
   -6.1561    0.2462   -0.0361 H   0  0
   -2.1561  -10.4356    0.0001 H   0  0
   -5.8352   -8.2003   -0.0059 H   0  0
   -4.7079  -10.3451   -0.0103 H   0  0
  2  1  1  0
  3  1  1  0
  4  5  2  0
  5 21  1  0
  6  4  1  0
  7 10  1  0
  8  3  1  0
  9  2  1  0
 10 18  1  0
 11  5  1  0
 12 11  1  0
 13  7  2  0
 14  7  1  0
 15  1  1  0
 16 19  1  0
 17 18  1  0
 18 22  1  0
 19 14  2  0
 20 13  1  0
 21 28  2  0
 22 15  1  0
 23  4  1  0
 24  3  2  0
 25  2  2  0
 26 16  1  0
 27 17  2  0
 28 31  1  0
 29 30  2  0
 30 26  1  0
 31 26  2  0
 32 14  1  0
 33 13  1  0
 34 17  1  0
 35 23  1  0
 36  9  2  0
 37  8  2  0
 38 11  2  0
 39 12  2  0
 40 35  2  0
 41 35  1  0
 42 37  1  0
 43 36  1  0
 44 38  1  0
 45 44  2  0
 46 41  2  0
 47 40  1  0
 48 46  1  0
  8  9  1  0
 43 42  2  0
 20 16  2  0
 21 29  1  0
 12  6  1  0
 45 39  1  0
 47 48  2  0
 15 49  1  0
 15 50  1  0
 18 51  1  0
 19 52  1  0
 20 53  1  0
 22 54  1  0
 22 55  1  0
 23 56  1  0
 23 57  1  0
 28 58  1  0
 29 59  1  0
 30 60  1  0
 31 61  1  0
 34 62  1  0
 36 63  1  0
 37 64  1  0
 38 65  1  0
 39 66  1  0
 40 67  1  0
 41 68  1  0
 42 69  1  0
 43 70  1  0
 44 71  1  0
 45 72  1  0
 46 73  1  0
 47 74  1  0
 48 75  1  0
M  END
> <Name>
Molecule

> <Clean Energy>
78.2922

> <From>
www.bindingDB.org

> <BindingDB Reactant_set_id>
50154631

> <Ligand InChI>
InChI=1S/C39H27Br2NO5S/c40-30-21-26(22-31(41)36(30)47-32(39(45)46)18-19-42-37(43)27-10-4-5-11-28(27)38(42)44)24-14-16-25(17-15-24)35-29-12-6-7-13-33(29)48-34(35)20-23-8-2-1-3-9-23/h1-17,21-22,32H,18-2
0H2,(H,45,46)

> <Ligand InChI Key>
ATICEAYKVFZDBK-UHFFFAOYSA-N

> <BindingDB MonomerID>
50086952

> <BindingDB Ligand Name>
2-[4'-(2-Benzyl-benzo[b]thiophen-3-yl)-3,5-dibromo-biphenyl-4-yloxy]-4-(1,3-dioxo-1,3-dihydro-isoindol-2-yl)-butyric acid::CHEMBL25486

> <Target Name>
Tyrosine-protein phosphatase non-receptor type 1

> <Target Source Organism According to Curator or DataSource>
Homo sapiens

> <IC50 (nM)>
44

> <Curation/DataSource>
ChEMBL

> <Article DOI>
10.1021/jm990560c

> <BindingDB Entry DOI>
10.7270/Q2W958FT

> <PMID>
10753467

> <Authors>
Malamas, MS; Sredy, J; Moxham, C; Katz, A; Xu, W; McDevitt, R; Adebayo, FO; Sawicki, DR; Seestaller, L; Sullivan, D; Taylor, JR

> <Institution>
Wyeth-Ayerst Research

> <Link to Ligand in BindingDB>
http://www.bindingdb.org/bind/chemsearch/marvin/MolStructure.jsp?monomerid=50086952

> <Link to Ligand-Target Pair in BindingDB>
http://www.bindingdb.org/jsp/dbsearch/PrimarySearch_ki.jsp?energyterm=kJ/mole&tag=pol&polymerid=2622&target=Tyrosine-protein+phosphatase+non-receptor+type+1&column=ki&startPg=0&Increment=50&submit=Sea
rch
http://www.bindingdb.org/jsp/dbsearch/PrimarySearch_ki.jsp?energyterm=kJ/mole&tag=r21&monomerid=50086952&enzyme=Tyrosine-protein+phosphatase+non-receptor+type+1&column=ki&startPg=0&Increment=50&submit
=Search

> <PubChem CID of Ligand>
10819036

> <PubChem SID of Ligand>
103986063

> <ChEMBL ID of Ligand>
CHEMBL25486

> <ZINC ID of Ligand>
ZINC95608560

> <Number of Protein Chains in Target (bigger than 1 implies a multichain complex)>
1

> <BindingDB Target Chain Sequence>
MEMEKEFEQIDKSGSWAAIYQDIRHEASDFPCRVAKLPKNKNRNRYRDVSPFDHSRIKLHQEDNDYINASLIKMEEAQRSYILTQGPLPNTCGHFWEMVWEQKSRGVVMLNRVMEKGSLKCAQYWPQKEEKEMIFEDTNLKLTLISEDIKSYYTVRQLELENLTTQETREILHFHYTTWPDFGVPESPASFLNFLFKVRE
SGSLSPEHGPVVVHCSAGIGRSGTFCLADTCLLLMDKRKDPSSVDIKKVLLEMRKFRMGLIQTADQLRFSYLAVIEGAKFIMGDSSVQDQWKELSHEDLEPPPEHIPPPPRPPKRILEPHNGKCREFFPNHQWVKEETQEDKDCPIKEEKGSPLNAAPYGIESMSQDTEVRSRVVGGSLRGAQAASPAKGEPSLPEKDED
HALSYWKPFLVNMCVATVLTAGAYLCYRFLFNSNT

> <PDB ID(s) of Target Chain>
1BZJ,1G7G,1GFY,1JF7,1KAK,1KAV,1LQF,1NL9,1NNY,1NO6,1NZ7,1OEM,1OEO,1OES,1OET,1OEU,1OEV,1ONY,1ONZ,1PH0,1PXH,1PYN,1Q1M,1Q6J,1Q6M,1Q6N,1Q6P,1Q6S,1Q6T,1QXK,1SUG,1T48,1T49,1T4J,1WAX,1XBO,2AZR,2B07,2BGD,2BGE,
2CM2,2CM3,2CM7,2CM8,2CMA,2CMB,2CMC,2CNE,2CNF,2CNG,2CNH,2CNI,2F6T,2F6V,2F6W,2F6Y,2F6Z,2F70,2F71,2FJN,2H4G,2H4K,2HB1,2HNP,2HNQ,2QBP,2QBQ,2QBR,2QBS,2VEU,2VEV,2VEW,2VEX,2VEY,2ZMM,2ZN7,3A5J,3CWE,3D9C,3EAX,
3EB1,3EU0,3I7Z,3I80,3SME,4BJO,4I8N,4QBW,4Y14,5K9V,5K9W,5KA0,5KA1,5T19,6B90,6NTP,6W30,7KEY,7KLX,7LFO,7MN9,7MNA,8DU7,8G65,8G67,8G68,8G69,8G6A,8SKL

> <UniProt (SwissProt) Recommended Name of Target Chain>
Tyrosine-protein phosphatase non-receptor type 1

> <UniProt (SwissProt) Entry Name of Target Chain>
PTN1_HUMAN

> <UniProt (SwissProt) Primary ID of Target Chain>
P18031

> <UniProt (SwissProt) Secondary ID(s) of Target Chain>
Q5TGD8 Q9BQV9 Q9NQQ4

$$$$
Molecule
  SciTegic10242319433D

 58 62  0  0  0  0            999 V2000
   -2.3519  -24.6590   -0.0513 C   0  0
   -2.4333  -26.1113   -0.0463 C   0  0
   -1.3008  -26.8464   -0.0288 C   0  0
    0.0980  -26.2096   -0.0091 C   0  0
    0.1301  -24.8914    0.0351 C   0  0
   -1.1333  -24.1373   -0.0070 C   0  0
   -3.6529  -23.7534   -0.2865 C   0  0
    1.4828  -27.0596   -0.0733 C   0  0  2  0  0  0
   -3.7392  -22.1394    0.1106 C   0  0  2  0  0  0
   -5.0644  -21.4542   -0.4074 N   0  0
   -2.4334  -21.1945   -0.0009 C   0  0
   -1.2128  -21.6088    0.0028 N   0  0
   -2.4420  -19.7583   -0.0113 N   0  0
   -1.0798  -19.3922   -0.0112 C   0  0
   -0.3349  -20.5328   -0.0122 C   0  0
    1.0023  -20.5357   -0.0044 C   0  0
    1.6906  -19.2122   -0.0035 C   0  0
    0.9558  -18.0902   -0.0036 C   0  0
   -0.5324  -18.1807   -0.0059 C   0  0
    1.4852  -28.8107   -0.0095 S   0  0
    3.1973  -28.9805    0.2317 N   0  0
    3.8713  -27.7364    0.0270 C   0  0
    2.9605  -26.4801    0.0340 C   0  0
    0.9955  -29.7529   -1.0992 O   0  0
    0.3954  -28.7313    1.0132 O   0  0
    5.1108  -27.6502   -0.0179 O   0  0
   -6.5133  -22.4008    0.0591 S   0  0
   -8.3070  -22.9773   -0.1330 C   0  0
   -6.3441  -23.7576    0.6715 O   0  0
   -7.2268  -21.1268    0.3649 O   0  0
   -9.4637  -22.2506   -0.1074 C   0  0
  -10.7872  -22.9936   -0.0335 C   0  0
  -10.8604  -24.3255    0.0218 C   0  0
   -9.6451  -25.1063   -0.0360 C   0  0
   -8.4595  -24.4924   -0.1131 C   0  0
   -9.5381  -20.7987   -0.0483 C   0  0
   -9.5906  -19.6483   -0.0092 N   0  0
   -3.4053  -26.6045   -0.0567 H   0  0
   -1.3817  -27.9334   -0.0286 H   0  0
    1.0827  -24.3660    0.1022 H   0  0
   -1.0607  -23.0497   -0.0012 H   0  0
   -4.4563  -24.2387    0.2677 H   0  0
   -3.8631  -23.8078   -1.3546 H   0  0
    1.5011  -27.0472   -1.1631 H   0  0
   -3.9051  -22.1761    1.1873 H   0  0
   -5.0247  -21.3812   -1.4741 H   0  0
   -3.2931  -19.1098   -0.0177 H   0  0
    1.5669  -21.4681    0.0011 H   0  0
    2.7792  -19.1576   -0.0028 H   0  0
    1.4447  -17.1160   -0.0020 H   0  0
   -1.1511  -17.2833   -0.0032 H   0  0
    3.6834  -29.8957    0.4982 H   0  0
    3.0874  -25.9174    0.9588 H   0  0
    3.1848  -25.8370   -0.8170 H   0  0
  -11.7122  -22.4171   -0.0254 H   0  0
  -11.8278  -24.8199    0.1098 H   0  0
   -9.6951  -26.1950   -0.0168 H   0  0
   -7.5597  -25.1055   -0.1641 H   0  0
 17 18  2  0
  9  7  1  0
 18 19  1  0
 19 14  2  0
  8 20  1  0
  4  5  2  0
  9 10  1  0
  2  3  2  0
  9 11  1  0
 20 21  1  0
 21 22  1  0
 22 23  1  0
  8 23  1  0
 11 12  2  0
 20 24  2  0
  5  6  1  0
 20 25  2  0
  6  1  2  0
 22 26  2  0
 12 15  1  0
 10 27  1  0
 14 13  1  0
 27 28  1  0
 13 11  1  0
 27 29  2  0
  1  2  1  0
 27 30  2  0
  1  7  1  0
 28 31  2  0
 14 15  1  0
 31 32  1  0
  3  4  1  0
 32 33  2  0
 15 16  2  0
 33 34  1  0
  4  8  1  0
 34 35  2  0
 35 28  1  0
 16 17  1  0
 31 36  1  0
 36 37  3  0
  2 38  1  0
  3 39  1  0
  5 40  1  0
  6 41  1  0
  7 42  1  0
  7 43  1  0
  8 44  1  0
  9 45  1  0
 10 46  1  0
 13 47  1  0
 16 48  1  0
 17 49  1  0
 18 50  1  0
 19 51  1  0
 21 52  1  0
 23 53  1  0
 23 54  1  0
 32 55  1  0
 33 56  1  0
 34 57  1  0
 35 58  1  0
M  END
> <Name>
Molecule

> <Clean Energy>
225.626

> <From>
www.bindingDB.org

> <BindingDB Reactant_set_id>
50350925

> <Ligand InChI>
InChI=1S/C25H21N5O5S2/c26-15-18-5-1-4-8-22(18)36(32,33)29-21(25-27-19-6-2-3-7-20(19)28-25)13-16-9-11-17(12-10-16)23-14-24(31)30-37(23,34)35/h1-12,21,23,29H,13-14H2,(H,27,28)(H,30,31)

> <Ligand InChI Key>
MPZYBWIJDLDGEE-UHFFFAOYSA-N

> <BindingDB MonomerID>
50189649

> <BindingDB Ligand Name>
CHEMBL212260::N-{1-(1H-benzoimidazol-2-yl)-2-[4-(1,1,3-trioxo-1lambda*6*-isothiazolidin-5-yl)-phenyl]-ethyl}-2-cyano-benzenesulfonamide

> <Target Name>
Tyrosine-protein phosphatase non-receptor type 1

> <Target Source Organism According to Curator or DataSource>
Homo sapiens

> <IC50 (nM)>
45

> <Curation/DataSource>
ChEMBL

> <Article DOI>
10.1021/jm0600904

> <BindingDB Entry DOI>
10.7270/Q2JQ10M8

> <PMID>
16789735

> <Authors>
Combs, AP; Zhu, W; Crawley, ML; Glass, B; Polam, P; Sparks, RB; Modi, D; Takvorian, A; McLaughlin, E; Yue, EW; Wasserman, Z; Bower, M; Wei, M; Rupar, M; Ala, PJ; Reid, BM; Ellis, D; Gonneville, L; Emm
, T; Taylor, N; Yeleswaram, S; Li, Y; Wynn, R; Burn, TC; Hollis, G; Liu, PC; Metcalf, B

> <Institution>
Incyte Corporation

> <Link to Ligand in BindingDB>
http://www.bindingdb.org/bind/chemsearch/marvin/MolStructure.jsp?monomerid=50189649

> <Link to Ligand-Target Pair in BindingDB>
http://www.bindingdb.org/jsp/dbsearch/PrimarySearch_ki.jsp?energyterm=kJ/mole&tag=pol&polymerid=2622&target=Tyrosine-protein+phosphatase+non-receptor+type+1&column=ki&startPg=0&Increment=50&submit=Sea
rch
http://www.bindingdb.org/jsp/dbsearch/PrimarySearch_ki.jsp?energyterm=kJ/mole&tag=r21&monomerid=50189649&enzyme=Tyrosine-protein+phosphatase+non-receptor+type+1&column=ki&startPg=0&Increment=50&submit
=Search

> <PubChem CID of Ligand>
21879012

> <PubChem SID of Ligand>
104073170

> <ChEMBL ID of Ligand>
CHEMBL212260

> <ZINC ID of Ligand>
ZINC36088775

> <Number of Protein Chains in Target (bigger than 1 implies a multichain complex)>
1

> <BindingDB Target Chain Sequence>
MEMEKEFEQIDKSGSWAAIYQDIRHEASDFPCRVAKLPKNKNRNRYRDVSPFDHSRIKLHQEDNDYINASLIKMEEAQRSYILTQGPLPNTCGHFWEMVWEQKSRGVVMLNRVMEKGSLKCAQYWPQKEEKEMIFEDTNLKLTLISEDIKSYYTVRQLELENLTTQETREILHFHYTTWPDFGVPESPASFLNFLFKVRE
SGSLSPEHGPVVVHCSAGIGRSGTFCLADTCLLLMDKRKDPSSVDIKKVLLEMRKFRMGLIQTADQLRFSYLAVIEGAKFIMGDSSVQDQWKELSHEDLEPPPEHIPPPPRPPKRILEPHNGKCREFFPNHQWVKEETQEDKDCPIKEEKGSPLNAAPYGIESMSQDTEVRSRVVGGSLRGAQAASPAKGEPSLPEKDED
HALSYWKPFLVNMCVATVLTAGAYLCYRFLFNSNT

> <PDB ID(s) of Target Chain>
1BZJ,1G7G,1GFY,1JF7,1KAK,1KAV,1LQF,1NL9,1NNY,1NO6,1NZ7,1OEM,1OEO,1OES,1OET,1OEU,1OEV,1ONY,1ONZ,1PH0,1PXH,1PYN,1Q1M,1Q6J,1Q6M,1Q6N,1Q6P,1Q6S,1Q6T,1QXK,1SUG,1T48,1T49,1T4J,1WAX,1XBO,2AZR,2B07,2BGD,2BGE,
2CM2,2CM3,2CM7,2CM8,2CMA,2CMB,2CMC,2CNE,2CNF,2CNG,2CNH,2CNI,2F6T,2F6V,2F6W,2F6Y,2F6Z,2F70,2F71,2FJN,2H4G,2H4K,2HB1,2HNP,2HNQ,2QBP,2QBQ,2QBR,2QBS,2VEU,2VEV,2VEW,2VEX,2VEY,2ZMM,2ZN7,3A5J,3CWE,3D9C,3EAX,
3EB1,3EU0,3I7Z,3I80,3SME,4BJO,4I8N,4QBW,4Y14,5K9V,5K9W,5KA0,5KA1,5T19,6B90,6NTP,6W30,7KEY,7KLX,7LFO,7MN9,7MNA,8DU7,8G65,8G67,8G68,8G69,8G6A,8SKL

> <UniProt (SwissProt) Recommended Name of Target Chain>
Tyrosine-protein phosphatase non-receptor type 1

> <UniProt (SwissProt) Entry Name of Target Chain>
PTN1_HUMAN

> <UniProt (SwissProt) Primary ID of Target Chain>
P18031

> <UniProt (SwissProt) Secondary ID(s) of Target Chain>
Q5TGD8 Q9BQV9 Q9NQQ4

$$$$
Molecule
  SciTegic10242319433D

 42 44  0  0  0  0            999 V2000
   -4.9634  -13.8371   -0.0272 C   0  0
   -4.8401  -15.1717    0.1709 C   0  0
   -3.4784  -15.7404    0.1878 C   0  0
   -3.7379  -13.0188   -0.2048 C   0  0
   -2.5295  -13.5765   -0.1719 C   0  0
   -2.3979  -14.9835    0.0246 C   0  0
   -1.1238  -15.5596    0.0556 N   0  0
   -0.0601  -14.8632   -0.0720 C   0  0
   -0.1300  -13.3953   -0.2676 C   0  0
   -1.3155  -12.7809   -0.3206 C   0  0
   -5.9712  -16.2293    0.4157 C   0  0
   -7.5441  -15.9938   -0.1351 P   0  0
   -7.5550  -15.8284   -1.6750 O   0  0
   -8.1569  -14.9196    0.4684 O   0  0
   -8.3647  -17.2560    0.2416 O   0  0
   -5.4984  -17.4135   -0.1093 F   0  0
   -6.0469  -16.4073    1.7792 F   0  0
    1.2352  -15.5695   -0.0165 C   0  0
   -6.6088  -12.8923   -0.0741 Br  0  0
    2.4118  -14.9393   -0.0890 N   0  0
    3.6002  -15.7684   -0.0199 C   0  0
    4.8948  -14.9915   -0.0125 C   0  0
    1.2303  -16.7988    0.1087 O   0  0
    6.0485  -15.6608    0.0094 C   0  0
    7.3236  -14.9411    0.0158 C   0  0
    7.3327  -13.6100    0.0007 C   0  0
    6.0645  -12.8696   -0.0220 C   0  0
    4.9029  -13.5264   -0.0286 C   0  0
   -3.3550  -16.8129    0.3385 H   0  0
   -3.8287  -11.9445   -0.3646 H   0  0
    0.7877  -12.8158   -0.3685 H   0  0
   -1.3746  -11.7032   -0.4723 H   0  0
   -8.5469  -15.7669   -2.0139 H   0  0
   -8.3709  -17.3714    1.2853 H   0  0
    2.4740  -13.8762   -0.1929 H   0  0
    3.5514  -16.3607    0.8939 H   0  0
    3.6047  -16.4325   -0.8841 H   0  0
    6.0419  -16.7507    0.0225 H   0  0
    8.2629  -15.4938    0.0330 H   0  0
    8.2798  -13.0705    0.0052 H   0  0
    6.0721  -11.7797   -0.0335 H   0  0
    3.9630  -12.9746   -0.0459 H   0  0
  3  6  2  0
 12 14  2  0
  6  7  1  0
 12 15  1  0
  1  2  2  0
 11 16  1  0
  7  8  2  0
 11 17  1  0
  5  4  2  0
  8 18  1  0
  8  9  1  0
  1 19  1  0
  4  1  1  0
 18 20  1  0
  9 10  2  0
 20 21  1  0
 10  5  1  0
 22 21  1  0
 18 23  2  0
  2 11  1  0
 22 24  2  0
  2  3  1  0
 24 25  1  0
 11 12  1  0
 25 26  2  0
  5  6  1  0
 26 27  1  0
 12 13  1  0
 27 28  2  0
 28 22  1  0
  3 29  1  0
  4 30  1  0
  9 31  1  0
 10 32  1  0
 13 33  1  0
 15 34  1  0
 20 35  1  0
 21 36  1  0
 21 37  1  0
 24 38  1  0
 25 39  1  0
 26 40  1  0
 27 41  1  0
 28 42  1  0
M  END
> <Name>
Molecule

> <Clean Energy>
19.0543

> <From>
www.bindingDB.org

> <BindingDB Reactant_set_id>
50859565

> <Ligand InChI>
InChI=1S/C18H14BrF2N2O4P/c19-14-8-12-6-7-15(17(24)22-10-11-4-2-1-3-5-11)23-16(12)9-13(14)18(20,21)28(25,26)27/h1-9H,10H2,(H,22,24)(H2,25,26,27)

> <Ligand InChI Key>
ROGRWHZGEHIBNQ-UHFFFAOYSA-N

> <BindingDB MonomerID>
50373456

> <BindingDB Ligand Name>
CHEMBL261108

> <Target Name>
Tyrosine-protein phosphatase non-receptor type 1

> <Target Source Organism According to Curator or DataSource>
Homo sapiens

> <IC50 (nM)>
45

> <Curation/DataSource>
ChEMBL

> <Article DOI>
10.1016/j.bmcl.2008.04.064

> <BindingDB Entry DOI>
10.7270/Q24M95DX

> <PMID>
18477508

> <Authors>
Han, Y; Belley, M; Bayly, CI; Colucci, J; Dufresne, C; Giroux, A; Lau, CK; Leblanc, Y; McKay, D; Therien, M; Wilson, MC; Skorey, K; Chan, CC; Scapin, G; Kennedy, BP

> <Institution>
Merck Frosst Centre for Therapeutic Research

> <Link to Ligand in BindingDB>
http://www.bindingdb.org/bind/chemsearch/marvin/MolStructure.jsp?monomerid=50373456

> <Link to Ligand-Target Pair in BindingDB>
http://www.bindingdb.org/jsp/dbsearch/PrimarySearch_ki.jsp?energyterm=kJ/mole&tag=pol&polymerid=2622&target=Tyrosine-protein+phosphatase+non-receptor+type+1&column=ki&startPg=0&Increment=50&submit=Sea
rch
http://www.bindingdb.org/jsp/dbsearch/PrimarySearch_ki.jsp?energyterm=kJ/mole&tag=r21&monomerid=50373456&enzyme=Tyrosine-protein+phosphatase+non-receptor+type+1&column=ki&startPg=0&Increment=50&submit
=Search

> <PubChem CID of Ligand>
25056895

> <PubChem SID of Ligand>
160852557

> <ChEMBL ID of Ligand>
CHEMBL261108

> <ZINC ID of Ligand>
ZINC29047775

> <Number of Protein Chains in Target (bigger than 1 implies a multichain complex)>
1

> <BindingDB Target Chain Sequence>
MEMEKEFEQIDKSGSWAAIYQDIRHEASDFPCRVAKLPKNKNRNRYRDVSPFDHSRIKLHQEDNDYINASLIKMEEAQRSYILTQGPLPNTCGHFWEMVWEQKSRGVVMLNRVMEKGSLKCAQYWPQKEEKEMIFEDTNLKLTLISEDIKSYYTVRQLELENLTTQETREILHFHYTTWPDFGVPESPASFLNFLFKVRE
SGSLSPEHGPVVVHCSAGIGRSGTFCLADTCLLLMDKRKDPSSVDIKKVLLEMRKFRMGLIQTADQLRFSYLAVIEGAKFIMGDSSVQDQWKELSHEDLEPPPEHIPPPPRPPKRILEPHNGKCREFFPNHQWVKEETQEDKDCPIKEEKGSPLNAAPYGIESMSQDTEVRSRVVGGSLRGAQAASPAKGEPSLPEKDED
HALSYWKPFLVNMCVATVLTAGAYLCYRFLFNSNT

> <PDB ID(s) of Target Chain>
1BZJ,1G7G,1GFY,1JF7,1KAK,1KAV,1LQF,1NL9,1NNY,1NO6,1NZ7,1OEM,1OEO,1OES,1OET,1OEU,1OEV,1ONY,1ONZ,1PH0,1PXH,1PYN,1Q1M,1Q6J,1Q6M,1Q6N,1Q6P,1Q6S,1Q6T,1QXK,1SUG,1T48,1T49,1T4J,1WAX,1XBO,2AZR,2B07,2BGD,2BGE,
2CM2,2CM3,2CM7,2CM8,2CMA,2CMB,2CMC,2CNE,2CNF,2CNG,2CNH,2CNI,2F6T,2F6V,2F6W,2F6Y,2F6Z,2F70,2F71,2FJN,2H4G,2H4K,2HB1,2HNP,2HNQ,2QBP,2QBQ,2QBR,2QBS,2VEU,2VEV,2VEW,2VEX,2VEY,2ZMM,2ZN7,3A5J,3CWE,3D9C,3EAX,
3EB1,3EU0,3I7Z,3I80,3SME,4BJO,4I8N,4QBW,4Y14,5K9V,5K9W,5KA0,5KA1,5T19,6B90,6NTP,6W30,7KEY,7KLX,7LFO,7MN9,7MNA,8DU7,8G65,8G67,8G68,8G69,8G6A,8SKL

> <UniProt (SwissProt) Recommended Name of Target Chain>
Tyrosine-protein phosphatase non-receptor type 1

> <UniProt (SwissProt) Entry Name of Target Chain>
PTN1_HUMAN

> <UniProt (SwissProt) Primary ID of Target Chain>
P18031

> <UniProt (SwissProt) Secondary ID(s) of Target Chain>
Q5TGD8 Q9BQV9 Q9NQQ4

$$$$
Molecule
  SciTegic10242319433D

 67 71  0  0  0  0            999 V2000
   -3.5362   -2.4043    0.3137 N   0  0
   -3.4714   -3.5975   -0.4109 N   0  0
    4.9107   -5.3693    0.3989 P   0  0
    4.4292   -3.9301   -0.2624 C   0  0
   -4.5929   -4.0842   -0.6061 N   0  0
   -2.3089   -1.4475    0.6304 C   0  0  1  0  0  0
   -4.9498   -2.2254    0.5976 C   0  0
   -5.5692   -3.2694   -0.0270 C   0  0
    2.9285   -3.7310   -0.1293 C   0  0
    4.5399   -5.4056    1.7271 O   0  0
   -1.5023   -2.8425    0.0998 C   0  0
   -3.0859   -0.2851   -0.1366 C   0  0
    5.0684   -2.9014    0.3983 F   0  0
    4.7928   -3.9611   -1.5948 F   0  0
    4.2642   -6.5532   -0.3606 O   0  0
    6.4557   -5.4751    0.2929 O   0  0
    2.4711   -2.6899    0.7684 C   0  0
    2.0347   -4.4494   -0.8151 C   0  0
    0.1270   -3.1596    0.1065 C   0  0
   -1.1364   -0.8850   -0.2530 C   0  0
    1.1777   -2.4207    0.9075 C   0  0
    0.5711   -4.1461   -0.6908 C   0  0
   -5.6413   -1.2962    1.2644 C   0  0
    0.6669    2.4983   -0.1260 C   0  0
   -0.5585    0.4518    0.3816 C   0  0
   -6.8904   -3.4269   -0.0486 C   0  0
   -3.3171   -0.3828   -1.4579 C   0  0
   -3.6111    0.9345    0.5953 C   0  0
    0.6514    1.0115   -0.3584 C   0  0
    1.7503    3.2151   -0.4131 C   0  0
   -0.5465    3.1708    0.3679 C   0  0
   -7.1135   -1.4036    1.2873 C   0  0
   -7.7127   -2.4166    0.6502 C   0  0
   -4.0460    0.6721   -2.1629 C   0  0
   -4.2681    1.8804   -0.0691 C   0  0
   -0.5651    4.4924    0.5220 C   0  0
    1.7328    4.6705   -0.2256 C   0  0
    0.6296    5.2776    0.2120 C   0  0
   -4.4932    1.7419   -1.5069 C   0  0
   -1.9404   -3.6509    0.6852 H   0  0
   -1.7970   -2.9483   -0.9442 H   0  0
    3.2185   -6.4806   -0.2980 H   0  0
    6.7414   -5.4341   -0.7166 H   0  0
    3.2014   -2.1171    1.3399 H   0  0
    2.3698   -5.2571   -1.4658 H   0  0
   -0.3413   -1.6284   -0.3102 H   0  0
   -1.5105   -0.6745   -1.2549 H   0  0
    0.8663   -1.6511    1.6138 H   0  0
   -0.1469   -4.7378   -1.2587 H   0  0
   -5.1318   -0.4808    1.7778 H   0  0
   -1.3461    1.2052    0.3715 H   0  0
   -0.2660    0.2449    1.4110 H   0  0
   -7.3500   -4.2708   -0.5632 H   0  0
   -2.9592   -1.2535   -2.0073 H   0  0
   -3.4498    1.0360    1.6685 H   0  0
    0.5670    0.8012   -1.4246 H   0  0
    1.5663    0.5635    0.0295 H   0  0
    2.6483    2.7228   -0.7865 H   0  0
   -1.4328    2.5837    0.6083 H   0  0
   -7.7090   -0.6621    1.8199 H   0  0
   -8.7998   -2.4961    0.6467 H   0  0
   -4.2247    0.5817   -3.2344 H   0  0
   -4.6388    2.7593    0.4584 H   0  0
   -1.4679    4.9885    0.8783 H   0  0
    2.6249    5.2571   -0.4449 H   0  0
    0.6178    6.3601    0.3389 H   0  0
   -5.0317    2.5207   -2.0469 H   0  0
  2  1  1  0
  3  4  1  0
  4  9  1  0
  5  2  2  0
  6  1  1  0
  7  1  1  0
  8  7  1  0
  9 18  2  0
 10  3  2  0
 11  6  1  0
 12  6  1  0
 13  4  1  0
 14  4  1  0
 15  3  1  0
 16  3  1  0
 17 21  2  0
 18 22  1  0
 19 11  1  0
 20  6  1  0
 21 19  1  0
 22 19  2  0
 23  7  2  0
 24 29  1  0
 25 20  1  0
 26  8  2  0
 27 12  2  0
 28 12  1  0
 29 25  1  0
 30 24  2  0
 31 24  1  0
 32 23  1  0
 33 32  2  0
 34 27  1  0
 35 28  2  0
 36 31  2  0
 37 30  1  0
 38 36  1  0
 39 35  1  0
  5  8  1  0
 26 33  1  0
 39 34  2  0
 17  9  1  0
 38 37  2  0
 11 40  1  0
 11 41  1  0
 15 42  1  0
 16 43  1  0
 17 44  1  0
 18 45  1  0
 20 46  1  0
 20 47  1  0
 21 48  1  0
 22 49  1  0
 23 50  1  0
 25 51  1  0
 25 52  1  0
 26 53  1  0
 27 54  1  0
 28 55  1  0
 29 56  1  0
 29 57  1  0
 30 58  1  0
 31 59  1  0
 32 60  1  0
 33 61  1  0
 34 62  1  0
 35 63  1  0
 36 64  1  0
 37 65  1  0
 38 66  1  0
 39 67  1  0
M  END
> <Name>
Molecule

> <Clean Energy>
186.897

> <From>
www.bindingDB.org

> <BindingDB Reactant_set_id>
50026898

> <Ligand InChI>
InChI=1S/C30H28F2N3O3P/c31-30(32,39(36,37)38)26-19-17-24(18-20-26)22-29(25-13-5-2-6-14-25,21-9-12-23-10-3-1-4-11-23)35-28-16-8-7-15-27(28)33-34-35/h1-8,10-11,13-20H,9,12,21-22H2,(H2,36,37,38)

> <Ligand InChI Key>
DIGCHRPBTQFUGF-UHFFFAOYSA-N

> <BindingDB MonomerID>
50142333

> <BindingDB Ligand Name>
CHEMBL9321::{[4-(2-Benzotriazol-1-yl-2,5-diphenyl-pentyl)-phenyl]-difluoro-methyl}-phosphonic acid

> <Target Name>
Tyrosine-protein phosphatase non-receptor type 1

> <Target Source Organism According to Curator or DataSource>
Homo sapiens

> <IC50 (nM)>
46

> <Curation/DataSource>
ChEMBL

> <Article DOI>
10.1016/j.bmcl.2003.11.076

> <BindingDB Entry DOI>
10.7270/Q24M9404

> <PMID>
15013020

> <Authors>
Lau, CK; Bayly, CI; Gauthier, JY; Li, CS; Therien, M; Asante-Appiah, E; Cromlish, W; Boie, Y; Forghani, F; Desmarais, S; Wang, Q; Skorey, K; Waddleton, D; Payette, P; Ramachandran, C; Kennedy, BP; Sca
pin, G

> <Institution>
Merck Frosst Centre for Therapeutic Research

> <Link to Ligand in BindingDB>
http://www.bindingdb.org/bind/chemsearch/marvin/MolStructure.jsp?monomerid=50142333

> <Link to Ligand-Target Pair in BindingDB>
http://www.bindingdb.org/jsp/dbsearch/PrimarySearch_ki.jsp?energyterm=kJ/mole&tag=pol&polymerid=2622&target=Tyrosine-protein+phosphatase+non-receptor+type+1&column=ki&startPg=0&Increment=50&submit=Sea
rch
http://www.bindingdb.org/jsp/dbsearch/PrimarySearch_ki.jsp?energyterm=kJ/mole&tag=r21&monomerid=50142333&enzyme=Tyrosine-protein+phosphatase+non-receptor+type+1&column=ki&startPg=0&Increment=50&submit
=Search

> <PubChem CID of Ligand>
44265874

> <PubChem SID of Ligand>
104031724

> <ChEMBL ID of Ligand>
CHEMBL9321

> <ZINC ID of Ligand>
ZINC25992187

> <Number of Protein Chains in Target (bigger than 1 implies a multichain complex)>
1

> <BindingDB Target Chain Sequence>
MEMEKEFEQIDKSGSWAAIYQDIRHEASDFPCRVAKLPKNKNRNRYRDVSPFDHSRIKLHQEDNDYINASLIKMEEAQRSYILTQGPLPNTCGHFWEMVWEQKSRGVVMLNRVMEKGSLKCAQYWPQKEEKEMIFEDTNLKLTLISEDIKSYYTVRQLELENLTTQETREILHFHYTTWPDFGVPESPASFLNFLFKVRE
SGSLSPEHGPVVVHCSAGIGRSGTFCLADTCLLLMDKRKDPSSVDIKKVLLEMRKFRMGLIQTADQLRFSYLAVIEGAKFIMGDSSVQDQWKELSHEDLEPPPEHIPPPPRPPKRILEPHNGKCREFFPNHQWVKEETQEDKDCPIKEEKGSPLNAAPYGIESMSQDTEVRSRVVGGSLRGAQAASPAKGEPSLPEKDED
HALSYWKPFLVNMCVATVLTAGAYLCYRFLFNSNT

> <PDB ID(s) of Target Chain>
1BZJ,1G7G,1GFY,1JF7,1KAK,1KAV,1LQF,1NL9,1NNY,1NO6,1NZ7,1OEM,1OEO,1OES,1OET,1OEU,1OEV,1ONY,1ONZ,1PH0,1PXH,1PYN,1Q1M,1Q6J,1Q6M,1Q6N,1Q6P,1Q6S,1Q6T,1QXK,1SUG,1T48,1T49,1T4J,1WAX,1XBO,2AZR,2B07,2BGD,2BGE,
2CM2,2CM3,2CM7,2CM8,2CMA,2CMB,2CMC,2CNE,2CNF,2CNG,2CNH,2CNI,2F6T,2F6V,2F6W,2F6Y,2F6Z,2F70,2F71,2FJN,2H4G,2H4K,2HB1,2HNP,2HNQ,2QBP,2QBQ,2QBR,2QBS,2VEU,2VEV,2VEW,2VEX,2VEY,2ZMM,2ZN7,3A5J,3CWE,3D9C,3EAX,
3EB1,3EU0,3I7Z,3I80,3SME,4BJO,4I8N,4QBW,4Y14,5K9V,5K9W,5KA0,5KA1,5T19,6B90,6NTP,6W30,7KEY,7KLX,7LFO,7MN9,7MNA,8DU7,8G65,8G67,8G68,8G69,8G6A,8SKL

> <UniProt (SwissProt) Recommended Name of Target Chain>
Tyrosine-protein phosphatase non-receptor type 1

> <UniProt (SwissProt) Entry Name of Target Chain>
PTN1_HUMAN

> <UniProt (SwissProt) Primary ID of Target Chain>
P18031

> <UniProt (SwissProt) Secondary ID(s) of Target Chain>
Q5TGD8 Q9BQV9 Q9NQQ4

$$$$
Molecule
  SciTegic10242319433D

  4  3  0  0  0  0            999 V2000
    4.7487   -3.4234   -0.0004 V   0  0
    4.7533   -1.6112   -0.0010 O   0  5
    3.1891   -3.8502   -0.0001 O   0  0
    6.3061   -3.8580   -0.0004 O   0  0
  2  1  1  0
  3  1  2  0
  4  1  2  0
M  CHG  1   2  -1
M  END
> <Name>
Molecule

> <Clean Energy>
18.7336

> <From>
www.bindingDB.org

> <BindingDB Reactant_set_id>
51399951

> <Ligand InChI>
InChI=1S/3O.V/q;;-1;

> <Ligand InChI Key>
ALTWGIIQPLQAAM-UHFFFAOYSA-N

> <BindingDB MonomerID>
50115732

> <BindingDB Ligand Name>
CHEMBL294467::Sodium vanadate

> <Target Name>
Tyrosine-protein phosphatase non-receptor type 1

> <Target Source Organism According to Curator or DataSource>
Homo sapiens

> <IC50 (nM)>
46

> <Curation/DataSource>
ChEMBL

> <Article DOI>
10.1016/j.ejmech.2020.112508

> <BindingDB Entry DOI>
10.7270/Q2QJ7N1M

> <PMID>
32738350

> <Authors>
Lei, S; Zhang, D; Qi, Y; Chowdhury, SR; Sun, R; Wang, J; Du, Y; Fu, L; Jiang, F

> <Institution>
Shanghai Jiao Tong University

> <Link to Ligand in BindingDB>
http://www.bindingdb.org/bind/chemsearch/marvin/MolStructure.jsp?monomerid=50115732

> <Link to Ligand-Target Pair in BindingDB>
http://www.bindingdb.org/jsp/dbsearch/PrimarySearch_ki.jsp?energyterm=kJ/mole&tag=pol&polymerid=2622&target=Tyrosine-protein+phosphatase+non-receptor+type+1&column=ki&startPg=0&Increment=50&submit=Sea
rch
http://www.bindingdb.org/jsp/dbsearch/PrimarySearch_ki.jsp?energyterm=kJ/mole&tag=r21&monomerid=50115732&enzyme=Tyrosine-protein+phosphatase+non-receptor+type+1&column=ki&startPg=0&Increment=50&submit
=Search

> <Ligand HET ID in PDB>
VN4

> <PDB ID(s) for Ligand-Target Complex>
3ZX5,6YSO,3E81,4RI5,4HGP,4HGO,4ERC,5A3S,5A3Q,5DMP,4DZ6,2RBK,2RAR

> <PubChem CID of Ligand>
26218

> <PubChem SID of Ligand>
104009580

> <ChEBI ID of Ligand>
75221

> <ChEMBL ID of Ligand>
CHEMBL294467

> <Number of Protein Chains in Target (bigger than 1 implies a multichain complex)>
1

> <BindingDB Target Chain Sequence>
MEMEKEFEQIDKSGSWAAIYQDIRHEASDFPCRVAKLPKNKNRNRYRDVSPFDHSRIKLHQEDNDYINASLIKMEEAQRSYILTQGPLPNTCGHFWEMVWEQKSRGVVMLNRVMEKGSLKCAQYWPQKEEKEMIFEDTNLKLTLISEDIKSYYTVRQLELENLTTQETREILHFHYTTWPDFGVPESPASFLNFLFKVRE
SGSLSPEHGPVVVHCSAGIGRSGTFCLADTCLLLMDKRKDPSSVDIKKVLLEMRKFRMGLIQTADQLRFSYLAVIEGAKFIMGDSSVQDQWKELSHEDLEPPPEHIPPPPRPPKRILEPHNGKCREFFPNHQWVKEETQEDKDCPIKEEKGSPLNAAPYGIESMSQDTEVRSRVVGGSLRGAQAASPAKGEPSLPEKDED
HALSYWKPFLVNMCVATVLTAGAYLCYRFLFNSNT

> <PDB ID(s) of Target Chain>
1BZJ,1G7G,1GFY,1JF7,1KAK,1KAV,1LQF,1NL9,1NNY,1NO6,1NZ7,1OEM,1OEO,1OES,1OET,1OEU,1OEV,1ONY,1ONZ,1PH0,1PXH,1PYN,1Q1M,1Q6J,1Q6M,1Q6N,1Q6P,1Q6S,1Q6T,1QXK,1SUG,1T48,1T49,1T4J,1WAX,1XBO,2AZR,2B07,2BGD,2BGE,
2CM2,2CM3,2CM7,2CM8,2CMA,2CMB,2CMC,2CNE,2CNF,2CNG,2CNH,2CNI,2F6T,2F6V,2F6W,2F6Y,2F6Z,2F70,2F71,2FJN,2H4G,2H4K,2HB1,2HNP,2HNQ,2QBP,2QBQ,2QBR,2QBS,2VEU,2VEV,2VEW,2VEX,2VEY,2ZMM,2ZN7,3A5J,3CWE,3D9C,3EAX,
3EB1,3EU0,3I7Z,3I80,3SME,4BJO,4I8N,4QBW,4Y14,5K9V,5K9W,5KA0,5KA1,5T19,6B90,6NTP,6W30,7KEY,7KLX,7LFO,7MN9,7MNA,8DU7,8G65,8G67,8G68,8G69,8G6A,8SKL

> <UniProt (SwissProt) Recommended Name of Target Chain>
Tyrosine-protein phosphatase non-receptor type 1

> <UniProt (SwissProt) Entry Name of Target Chain>
PTN1_HUMAN

> <UniProt (SwissProt) Primary ID of Target Chain>
P18031

> <UniProt (SwissProt) Secondary ID(s) of Target Chain>
Q5TGD8 Q9BQV9 Q9NQQ4

$$$$
Molecule
  SciTegic10242319433D

 77 82  0  0  0  0            999 V2000
   -1.7906    3.3446    0.4382 C   0  0
   -3.0087    2.7590    0.7472 C   0  0
   -3.1221    1.4088    1.0478 C   0  0
   -1.9343    0.6627    1.0775 C   0  0
   -0.6999    1.2242    0.7274 C   0  0
   -0.6413    2.5712    0.4008 C   0  0
    0.4660    0.4502    0.6304 C   0  0
    1.6721    1.0233    0.2053 C   0  0
    1.7066    2.3875   -0.0914 C   0  0
    0.5538    3.1514    0.0108 C   0  0
    3.3047    3.2629   -0.6722 Br  0  0
    2.9750    0.1898    0.0102 C   0  0
    3.5185    0.5132   -1.2160 F   0  0
    2.7897   -1.4579    0.0328 P   0  0
    3.8885    0.5694    0.9708 F   0  0
   -4.5790    0.6880    1.2703 C   0  0
   -5.8059    0.7537    0.0695 C   0  0  1  0  0  0
   -7.1362   -0.0683    0.6246 C   0  0
   -6.1848    2.3153   -0.1714 N   0  0
   -5.2693    3.1552   -0.4225 N   0  0
   -5.6688    4.3603   -0.5438 N   0  0
   -6.9654    4.3337   -0.3819 C   0  0
   -7.3403    3.0315   -0.1598 C   0  0
   -8.6798    2.7455    0.0227 C   0  0
   -9.6122    3.7890   -0.0085 C   0  0
   -9.2063    5.1071   -0.2192 C   0  0
   -7.8625    5.3974   -0.4154 C   0  0
   -7.4930   -1.5149    0.5445 C   0  0
   -8.0443    0.5747    1.1294 O   0  0
   -8.8238   -1.8341    0.2895 C   0  0
   -9.2352   -3.1597    0.1960 C   0  0
   -8.3187   -4.1872    0.3782 C   0  0
   -6.9993   -3.8772    0.6754 C   0  0
   -6.6022   -2.5481    0.7641 C   0  0
    4.1780   -2.1048   -0.2387 O   0  0
    1.9253   -1.8234   -0.9766 O   0  0
    2.2577   -1.9472    1.3993 O   0  0
   -5.0890    0.1570   -1.3768 C   0  0
   -4.0755   -1.0920   -1.2979 C   0  0
   -4.4065   -2.4195   -1.0565 C   0  0
   -3.4427   -3.3843   -0.7536 C   0  0
   -2.1027   -3.0202   -0.7111 C   0  0
   -1.7530   -1.7329   -1.0758 C   0  0
   -2.7267   -0.7913   -1.3770 C   0  0
   -0.9925   -3.9152   -0.1762 C   0  0
    0.1537   -3.6378   -0.8586 F   0  0
   -1.2891   -5.5375   -0.1447 P   0  0
   -0.7807   -3.5140    1.1376 F   0  0
   -0.0476   -6.2351    0.4810 O   0  0
   -2.3985   -5.8173    0.6280 O   0  0
   -1.4973   -6.0466   -1.5845 O   0  0
   -1.7370    4.4122    0.2249 H   0  0
   -3.9055    3.3785    0.7542 H   0  0
   -1.9733   -0.3833    1.3816 H   0  0
    0.4335   -0.6083    0.8883 H   0  0
    0.5887    4.2166   -0.2177 H   0  0
   -4.3757   -0.3686    1.4446 H   0  0
   -5.0061    1.1298    2.1706 H   0  0
   -9.0066    1.7191    0.1891 H   0  0
  -10.6701    3.5687    0.1339 H   0  0
   -9.9442    5.9093   -0.2300 H   0  0
   -7.5235    6.4187   -0.5888 H   0  0
   -9.5534   -1.0345    0.1614 H   0  0
  -10.2778   -3.3922   -0.0206 H   0  0
   -8.6329   -5.2271    0.2885 H   0  0
   -6.2749   -4.6750    0.8392 H   0  0
   -5.5665   -2.3160    1.0121 H   0  0
    4.5321   -1.7939   -1.1770 H   0  0
    2.9345   -1.6781    2.1557 H   0  0
   -5.9044   -0.1368   -2.0378 H   0  0
   -4.5387    0.9849   -1.8237 H   0  0
   -5.4537   -2.7183   -1.1050 H   0  0
   -3.7395   -4.4136   -0.5524 H   0  0
   -0.7003   -1.4548   -1.1272 H   0  0
   -2.4220    0.2094   -1.6832 H   0  0
    0.8006   -6.0312   -0.1033 H   0  0
   -2.3142   -5.5490   -2.0175 H   0  0
  1  2  4  0
  1  6  4  0
  2  3  4  0
  3  4  4  0
  4  5  4  0
  5  7  4  0
  6  5  4  0
  6 10  4  0
  7  8  4  0
  8  9  4  0
  9 10  4  0
  9 11  1  0
  8 12  1  0
 12 13  1  0
 12 14  1  0
 12 15  1  0
  3 16  1  0
 16 17  1  0
 17 18  1  0
 17 19  1  0
 19 20  4  0
 19 23  4  0
 20 21  4  0
 21 22  4  0
 22 27  4  0
 22 23  4  0
 23 24  4  0
 24 25  4  0
 25 26  4  0
 26 27  4  0
 18 28  1  0
 18 29  2  0
 28 30  4  0
 28 34  4  0
 30 31  4  0
 31 32  4  0
 32 33  4  0
 33 34  4  0
 14 35  1  0
 14 36  2  0
 14 37  1  0
 17 38  1  0
 38 39  1  0
 39 40  4  0
 39 44  4  0
 40 41  4  0
 41 42  4  0
 42 43  4  0
 43 44  4  0
 42 45  1  0
 45 46  1  0
 45 47  1  0
 45 48  1  0
 47 49  1  0
 47 50  2  0
 47 51  1  0
  1 52  1  0
  2 53  1  0
  4 54  1  0
  7 55  1  0
 10 56  1  0
 16 57  1  0
 16 58  1  0
 24 59  1  0
 25 60  1  0
 26 61  1  0
 27 62  1  0
 30 63  1  0
 31 64  1  0
 32 65  1  0
 33 66  1  0
 34 67  1  0
 35 68  1  0
 37 69  1  0
 38 70  1  0
 38 71  1  0
 40 72  1  0
 41 73  1  0
 43 74  1  0
 44 75  1  0
 49 76  1  0
 51 77  1  0
M  END
> <Name>
Molecule

> <Clean Energy>
153.682

> <From>
www.bindingDB.org

> <BindingDB Reactant_set_id>
253395

> <Ligand InChI>
InChI=1S/C34H26BrF4N3O7P2/c35-28-18-24-13-10-22(16-25(24)17-27(28)34(38,39)51(47,48)49)20-32(31(43)23-6-2-1-3-7-23,42-30-9-5-4-8-29(30)40-41-42)19-21-11-14-26(15-12-21)33(36,37)50(44,45)46/h1-18H,19-2
0H2,(H2,44,45,46)(H2,47,48,49)

> <Ligand InChI Key>
NEQVDVDUZHVWMC-UHFFFAOYSA-N

> <BindingDB MonomerID>
124208

> <BindingDB Ligand Name>
({7-[2-(1H-1,2,3-benzotriazol-1-yl)-2-({4-[difluoro(phosphono)methyl]phenyl}methyl)-3-oxo-3-phenylpropyl]-3-bromonaphthalen-2-yl}difluoromethyl)phosphonic acid (10a)

> <Target Name>
Tyrosine-protein phosphatase non-receptor type 1

> <Target Source Organism According to Curator or DataSource>
Homo sapiens

> <IC50 (nM)>
46

> <Curation/DataSource>
Curated from the literature by BindingDB

> <Article DOI>
10.1002/cmdc.201100077

> <BindingDB Entry DOI>
10.7270/Q2XW4HGZ

> <PMID>
21506278

> <PubChem AID>
aid1800514

> <Authors>
Patel, D; Jain, M; Shah, SR; Bahekar, R; Jadav, P; Darji, B; Siriki, Y; Bandyopadhyay, D; Joharapurkar, A; Kshirsagar, S; Patel, H; Shaikh, M; Sairam, KV; Patel, P

> <Institution>
Zydus Research Centre

> <Link to Ligand in BindingDB>
http://www.bindingdb.org/bind/chemsearch/marvin/MolStructure.jsp?monomerid=124208

> <Link to Ligand-Target Pair in BindingDB>
http://www.bindingdb.org/jsp/dbsearch/PrimarySearch_ki.jsp?energyterm=kJ/mole&tag=pol&polymerid=2622&target=Tyrosine-protein+phosphatase+non-receptor+type+1&column=ki&startPg=0&Increment=50&submit=Sea
rch
http://www.bindingdb.org/jsp/dbsearch/PrimarySearch_ki.jsp?energyterm=kJ/mole&tag=r21&monomerid=124208&enzyme=Tyrosine-protein+phosphatase+non-receptor+type+1&column=ki&startPg=0&Increment=50&submit=S
earch

> <PubChem CID of Ligand>
86766282

> <PubChem SID of Ligand>
225150600

> <Number of Protein Chains in Target (bigger than 1 implies a multichain complex)>
1

> <BindingDB Target Chain Sequence>
MEMEKEFEQIDKSGSWAAIYQDIRHEASDFPCRVAKLPKNKNRNRYRDVSPFDHSRIKLHQEDNDYINASLIKMEEAQRSYILTQGPLPNTCGHFWEMVWEQKSRGVVMLNRVMEKGSLKCAQYWPQKEEKEMIFEDTNLKLTLISEDIKSYYTVRQLELENLTTQETREILHFHYTTWPDFGVPESPASFLNFLFKVRE
SGSLSPEHGPVVVHCSAGIGRSGTFCLADTCLLLMDKRKDPSSVDIKKVLLEMRKFRMGLIQTADQLRFSYLAVIEGAKFIMGDSSVQDQWKELSHEDLEPPPEHIPPPPRPPKRILEPHNGKCREFFPNHQWVKEETQEDKDCPIKEEKGSPLNAAPYGIESMSQDTEVRSRVVGGSLRGAQAASPAKGEPSLPEKDED
HALSYWKPFLVNMCVATVLTAGAYLCYRFLFNSNT

> <PDB ID(s) of Target Chain>
1BZJ,1G7G,1GFY,1JF7,1KAK,1KAV,1LQF,1NL9,1NNY,1NO6,1NZ7,1OEM,1OEO,1OES,1OET,1OEU,1OEV,1ONY,1ONZ,1PH0,1PXH,1PYN,1Q1M,1Q6J,1Q6M,1Q6N,1Q6P,1Q6S,1Q6T,1QXK,1SUG,1T48,1T49,1T4J,1WAX,1XBO,2AZR,2B07,2BGD,2BGE,
2CM2,2CM3,2CM7,2CM8,2CMA,2CMB,2CMC,2CNE,2CNF,2CNG,2CNH,2CNI,2F6T,2F6V,2F6W,2F6Y,2F6Z,2F70,2F71,2FJN,2H4G,2H4K,2HB1,2HNP,2HNQ,2QBP,2QBQ,2QBR,2QBS,2VEU,2VEV,2VEW,2VEX,2VEY,2ZMM,2ZN7,3A5J,3CWE,3D9C,3EAX,
3EB1,3EU0,3I7Z,3I80,3SME,4BJO,4I8N,4QBW,4Y14,5K9V,5K9W,5KA0,5KA1,5T19,6B90,6NTP,6W30,7KEY,7KLX,7LFO,7MN9,7MNA,8DU7,8G65,8G67,8G68,8G69,8G6A,8SKL

> <UniProt (SwissProt) Recommended Name of Target Chain>
Tyrosine-protein phosphatase non-receptor type 1

> <UniProt (SwissProt) Entry Name of Target Chain>
PTN1_HUMAN

> <UniProt (SwissProt) Primary ID of Target Chain>
P18031

> <UniProt (SwissProt) Secondary ID(s) of Target Chain>
Q5TGD8 Q9BQV9 Q9NQQ4

$$$$
Molecule
  SciTegic10242319433D

 73 78  0  0  0  0            999 V2000
    0.7507   -6.3315    0.0000 C   0  0
    8.8481   -1.7506    0.0007 C   0  0
    1.3063   -5.0657   -0.0002 C   0  0
   -0.9559   -6.1902    0.0006 S   0  0
    9.9129   -3.0243    0.0025 C   0  0
    9.1420   -0.1317    0.0006 C   0  0
    0.1589   -3.9912    0.0001 C   0  0
    7.5450   -2.1070   -0.0004 C   0  0
   -1.1328   -4.5812    0.0004 C   0  0
    7.0777   -3.5231   -0.0027 C   0  0
    9.3894   -4.2537   -0.0025 C   0  0
    8.1673    0.8123    0.0005 C   0  0
   11.4210   -3.1097    0.0079 O   0  0
    7.9630   -4.5055   -0.0039 C   0  0
    2.8510   -4.6758   -0.0009 C   0  0
    8.5439    2.2764    0.0012 C   0  0
   10.4824    0.3982   -0.0073 C   0  0
    1.4874   -7.7140   -0.0001 C   0  0
    5.6153   -3.8936   -0.0025 C   0  0
   13.6679   -2.0158    0.0060 C   0  0
   14.3021   -0.9514    0.0086 O   0  0
    3.8302   -5.5864   -0.0022 C   0  0
    3.2782   -3.2422   -0.0003 C   0  0
    4.5667   -2.8792   -0.0010 C   0  0
    5.2599   -5.1818   -0.0029 C   0  0
   12.1794   -1.9456    0.0285 C   0  0
    9.8182    2.6623   -0.0036 C   0  0
   10.5682   -5.7454   -0.0015 Br  0  0
   10.8182    1.6740   -0.0071 C   0  0
    6.8036    0.4872    0.0064 O   0  0
   14.3388   -3.2211   -0.0216 O   0  0
    0.6174   -9.0140    0.0000 C   0  0
    0.2676   -2.6644    0.0000 C   0  0
   10.1786    4.0211   -0.0027 O   0  0
   -2.2675   -3.8952    0.0006 C   0  0
    5.9930    1.6739    0.0071 C   0  0
   -0.7166   -8.9962    0.0003 C   0  0
    1.2961  -10.3192   -0.0001 C   0  0
   11.6193    4.1679   -0.0058 C   0  0
   -0.9688   -1.8473    0.0002 C   0  0
   -2.1720   -2.4336    0.0005 C   0  0
   -1.4959  -10.2359    0.0004 C   0  0
    0.5898  -11.4517    0.0000 C   0  0
   -0.8728  -11.4100    0.0003 C   0  0
    6.7945   -1.3166    0.0005 H   0  0
    7.6084   -5.5362   -0.0061 H   0  0
    7.7570    3.0306    0.0059 H   0  0
   11.2976   -0.3253   -0.0141 H   0  0
    2.1155   -7.7455   -0.8904 H   0  0
    2.1159   -7.7455    0.8899 H   0  0
    3.5746   -6.6461   -0.0027 H   0  0
    2.5132   -2.4657    0.0007 H   0  0
    4.8333   -1.8223   -0.0006 H   0  0
    6.0332   -5.9500   -0.0038 H   0  0
   11.9053   -1.4096    0.9373 H   0  0
   11.8805   -1.3620   -0.8422 H   0  0
   11.8696    1.9616   -0.0095 H   0  0
   14.0893   -3.7807    0.8312 H   0  0
    1.2479   -2.1878   -0.0003 H   0  0
   -3.2338   -4.3994    0.0009 H   0  0
    4.9394    1.3949    0.0118 H   0  0
    6.2085    2.2623   -0.8848 H   0  0
    6.2154    2.2660    0.8949 H   0  0
   -1.2374   -8.0386    0.0004 H   0  0
    2.3853  -10.3618   -0.0003 H   0  0
   11.8771    5.2269   -0.0051 H   0  0
   12.0314    3.6948   -0.8973 H   0  0
   12.0354    3.6926    0.8825 H   0  0
   -0.8976   -0.7596    0.0001 H   0  0
   -3.0770   -1.8260    0.0006 H   0  0
   -2.5852  -10.1960    0.0006 H   0  0
    1.1050  -12.4122   -0.0001 H   0  0
   -1.4477  -12.3360    0.0004 H   0  0
  2  8  2  0
  3  1  2  0
  4  1  1  0
  5 11  2  0
  6  2  1  0
  7  3  1  0
  8 10  1  0
  9  4  1  0
 10 19  1  0
 11 14  1  0
 12  6  2  0
 13  5  1  0
 14 10  2  0
 15  3  1  0
 16 12  1  0
 17  6  1  0
 18  1  1  0
 19 24  1  0
 20 26  1  0
 21 20  2  0
 22 15  2  0
 23 15  1  0
 24 23  2  0
 25 22  1  0
 26 13  1  0
 27 29  1  0
 28 11  1  0
 29 17  2  0
 30 12  1  0
 31 20  1  0
 32 18  1  0
 33  7  2  0
 34 27  1  0
 35  9  2  0
 36 30  1  0
 37 32  2  0
 38 32  1  0
 39 34  1  0
 40 33  1  0
 41 35  1  0
 42 37  1  0
 43 38  2  0
 44 43  1  0
  7  9  1  0
 40 41  2  0
 25 19  2  0
 42 44  2  0
  5  2  1  0
 16 27  2  0
  8 45  1  0
 14 46  1  0
 16 47  1  0
 17 48  1  0
 18 49  1  0
 18 50  1  0
 22 51  1  0
 23 52  1  0
 24 53  1  0
 25 54  1  0
 26 55  1  0
 26 56  1  0
 29 57  1  0
 31 58  1  0
 33 59  1  0
 35 60  1  0
 36 61  1  0
 36 62  1  0
 36 63  1  0
 37 64  1  0
 38 65  1  0
 39 66  1  0
 39 67  1  0
 39 68  1  0
 40 69  1  0
 41 70  1  0
 42 71  1  0
 43 72  1  0
 44 73  1  0
M  END
> <Name>
Molecule

> <Clean Energy>
65.5808

> <From>
www.bindingDB.org

> <BindingDB Reactant_set_id>
51015872

> <Ligand InChI>
InChI=1S/C37H29BrO5S/c1-41-27-16-17-28(32(21-27)42-2)30-19-26(20-31(38)37(30)43-22-35(39)40)24-12-14-25(15-13-24)36-29-10-6-7-11-33(29)44-34(36)18-23-8-4-3-5-9-23/h3-17,19-21H,18,22H2,1-2H3,(H,39,40)

> <Ligand InChI Key>
KJYMPAGIGIWZEW-UHFFFAOYSA-N

> <BindingDB MonomerID>
50086969

> <BindingDB Ligand Name>
CHEMBL24607::[4-(2-Benzyl-benzo[b]thiophen-3-yl)-5'-bromo-2'',4''-dimethoxy-[1,1':3',1'']terphenyl-4'-yloxy]-acetic acid::[4-(2-Benzyl-benzo[b]thiophen-3-yl)-5'-bromo-2'',4''-dimethoxy-[1,1';3',1'']te
rphenyl-4'-yloxy]-acetic acid

> <Target Name>
Tyrosine-protein phosphatase non-receptor type 1

> <Target Source Organism According to Curator or DataSource>
Homo sapiens

> <IC50 (nM)>
46.77

> <Curation/DataSource>
ChEMBL

> <Article DOI>
10.1016/j.bmcl.2010.04.033

> <BindingDB Entry DOI>
10.7270/Q27D2WCC

> <PMID>
20452766

> <Authors>
Cheng, Y; Zhou, M; Tung, CH; Ji, M; Zhang, F

> <Institution>
Tsinghua University

> <Link to Ligand in BindingDB>
http://www.bindingdb.org/bind/chemsearch/marvin/MolStructure.jsp?monomerid=50086969

> <Link to Ligand-Target Pair in BindingDB>
http://www.bindingdb.org/jsp/dbsearch/PrimarySearch_ki.jsp?energyterm=kJ/mole&tag=pol&polymerid=2622&target=Tyrosine-protein+phosphatase+non-receptor+type+1&column=ki&startPg=0&Increment=50&submit=Sea
rch
http://www.bindingdb.org/jsp/dbsearch/PrimarySearch_ki.jsp?energyterm=kJ/mole&tag=r21&monomerid=50086969&enzyme=Tyrosine-protein+phosphatase+non-receptor+type+1&column=ki&startPg=0&Increment=50&submit
=Search

> <PubChem CID of Ligand>
10675911

> <PubChem SID of Ligand>
103986080

> <ChEMBL ID of Ligand>
CHEMBL24607

> <ZINC ID of Ligand>
ZINC28758350

> <Number of Protein Chains in Target (bigger than 1 implies a multichain complex)>
1

> <BindingDB Target Chain Sequence>
MEMEKEFEQIDKSGSWAAIYQDIRHEASDFPCRVAKLPKNKNRNRYRDVSPFDHSRIKLHQEDNDYINASLIKMEEAQRSYILTQGPLPNTCGHFWEMVWEQKSRGVVMLNRVMEKGSLKCAQYWPQKEEKEMIFEDTNLKLTLISEDIKSYYTVRQLELENLTTQETREILHFHYTTWPDFGVPESPASFLNFLFKVRE
SGSLSPEHGPVVVHCSAGIGRSGTFCLADTCLLLMDKRKDPSSVDIKKVLLEMRKFRMGLIQTADQLRFSYLAVIEGAKFIMGDSSVQDQWKELSHEDLEPPPEHIPPPPRPPKRILEPHNGKCREFFPNHQWVKEETQEDKDCPIKEEKGSPLNAAPYGIESMSQDTEVRSRVVGGSLRGAQAASPAKGEPSLPEKDED
HALSYWKPFLVNMCVATVLTAGAYLCYRFLFNSNT

> <PDB ID(s) of Target Chain>
1BZJ,1G7G,1GFY,1JF7,1KAK,1KAV,1LQF,1NL9,1NNY,1NO6,1NZ7,1OEM,1OEO,1OES,1OET,1OEU,1OEV,1ONY,1ONZ,1PH0,1PXH,1PYN,1Q1M,1Q6J,1Q6M,1Q6N,1Q6P,1Q6S,1Q6T,1QXK,1SUG,1T48,1T49,1T4J,1WAX,1XBO,2AZR,2B07,2BGD,2BGE,
2CM2,2CM3,2CM7,2CM8,2CMA,2CMB,2CMC,2CNE,2CNF,2CNG,2CNH,2CNI,2F6T,2F6V,2F6W,2F6Y,2F6Z,2F70,2F71,2FJN,2H4G,2H4K,2HB1,2HNP,2HNQ,2QBP,2QBQ,2QBR,2QBS,2VEU,2VEV,2VEW,2VEX,2VEY,2ZMM,2ZN7,3A5J,3CWE,3D9C,3EAX,
3EB1,3EU0,3I7Z,3I80,3SME,4BJO,4I8N,4QBW,4Y14,5K9V,5K9W,5KA0,5KA1,5T19,6B90,6NTP,6W30,7KEY,7KLX,7LFO,7MN9,7MNA,8DU7,8G65,8G67,8G68,8G69,8G6A,8SKL

> <UniProt (SwissProt) Recommended Name of Target Chain>
Tyrosine-protein phosphatase non-receptor type 1

> <UniProt (SwissProt) Entry Name of Target Chain>
PTN1_HUMAN

> <UniProt (SwissProt) Primary ID of Target Chain>
P18031

> <UniProt (SwissProt) Secondary ID(s) of Target Chain>
Q5TGD8 Q9BQV9 Q9NQQ4

$$$$
Molecule
  SciTegic10242319433D

 63 66  0  0  0  0            999 V2000
   -9.3138  -15.5774   -1.1996 O   0  0
   -9.3309  -14.7051    0.0430 S   0  0
   -9.3409  -15.5840    1.2802 O   0  0
   -7.8867  -12.7956   -1.0557 F   0  0
   -7.8686  -13.6185    0.0507 C   0  0
   -7.8753  -12.8059    1.1631 F   0  0
   -4.5909  -19.0308   -1.4806 O   0  0
   -4.1601  -19.3022   -0.0524 S   0  0
   -5.3282  -19.0035    0.8676 O   0  0
   -2.7660  -18.2187    0.3190 N   0  0
   -1.4954  -18.8074   -0.2870 C   0  0
   -2.9768  -16.8156   -0.2907 C   0  0
   -3.9915  -21.0759    0.0757 C   0  0
   -5.1265  -21.7693    0.0233 C   0  0
   -5.1206  -23.2165    0.0648 C   0  0
   -3.9685  -23.8773    0.1456 C   0  0
   -2.7039  -23.1279    0.2058 C   0  0
   -2.7132  -21.7938    0.1747 C   0  0
   -4.2585  -15.9817   -0.1059 C   0  0
   -4.1711  -14.5209   -0.2092 C   0  0
   -5.2728  -13.7715   -0.1410 C   0  0
   -6.5896  -14.4197    0.0313 C   0  0
   -6.6522  -15.7394    0.1361 C   0  0
   -5.4504  -16.5335    0.0611 C   0  0
   -0.1025  -18.0983   -0.1327 C   0  0
    0.9865  -18.8082   -0.4355 C   0  0
    2.3269  -18.2046   -0.3623 C   0  0
    2.4667  -16.9270   -0.0083 C   0  0
    1.2919  -16.1366    0.3293 C   0  0
    0.0800  -16.6846    0.2835 C   0  0
    3.7932  -16.3090    0.0335 C   0  0
    4.9212  -16.9758   -0.2065 C   0  0
    6.0862  -15.8163   -0.0436 S   0  0
    5.1653  -14.5325    0.3067 N   0  0
    3.9910  -14.8867    0.3274 N   0  0
   -3.9569  -25.2812    0.1651 O   0  0
   -5.2965  -25.8044    0.0883 C   0  0
   -5.2528  -27.2991    0.0439 C   0  0
   -6.4368  -28.0286   -0.0099 O   0  0
   -4.1643  -27.8836    0.0461 O   0  0
  -10.7680  -13.7278    0.0272 N   0  0
   -5.1203  -11.8774   -0.2660 Br  0  0
   -1.6782  -18.8940   -1.3581 H   0  0
   -1.3824  -19.8021    0.1443 H   0  0
   -2.8575  -16.9399   -1.3670 H   0  0
   -2.1650  -16.1998    0.0966 H   0  0
   -6.0758  -21.2390   -0.0520 H   0  0
   -6.0615  -23.7656    0.0298 H   0  0
   -1.7572  -23.6636    0.2760 H   0  0
   -1.7763  -21.2388    0.2225 H   0  0
   -3.1998  -14.0446   -0.3427 H   0  0
   -7.6164  -16.2270    0.2797 H   0  0
   -5.5256  -17.6178    0.1441 H   0  0
    0.8817  -19.8491   -0.7412 H   0  0
    3.2067  -18.8033   -0.5979 H   0  0
    1.4052  -15.0923    0.6205 H   0  0
   -0.7905  -16.0875    0.5553 H   0  0
    5.0453  -18.0307   -0.4510 H   0  0
   -5.8609  -25.4845    0.9642 H   0  0
   -5.7806  -25.4294   -0.8134 H   0  0
   -7.0176  -27.8172    0.8389 H   0  0
  -11.6305  -14.3611    0.0190 H   0  0
  -10.7708  -13.1108   -0.8470 H   0  0
 21 22  1  0
  9  8  2  0
 22 23  2  0
  8 13  1  0
 23 24  1  0
 24 19  2  0
 22  5  1  0
  5  4  1  0
 11 25  1  0
 13 14  2  0
 25 26  2  0
  6  5  1  0
 26 27  1  0
 14 15  1  0
 27 28  2  0
 28 29  1  0
 15 16  2  0
 29 30  2  0
 30 25  1  0
 31 32  2  0
  2  1  2  0
 16 17  1  0
  3  2  2  0
 17 18  2  0
 18 13  1  0
 32 33  1  0
 33 34  1  0
 34 35  2  0
 35 31  1  0
 28 31  1  0
 10 11  1  0
 16 36  1  0
 12 19  1  0
 36 37  1  0
 10  8  1  0
 37 38  1  0
 19 20  1  0
 38 39  1  0
  8  7  2  0
 38 40  2  0
  5  2  1  0
 20 21  2  0
  2 41  1  0
 10 12  1  0
 21 42  1  0
 11 43  1  0
 11 44  1  0
 12 45  1  0
 12 46  1  0
 14 47  1  0
 15 48  1  0
 17 49  1  0
 18 50  1  0
 20 51  1  0
 23 52  1  0
 24 53  1  0
 26 54  1  0
 27 55  1  0
 29 56  1  0
 30 57  1  0
 32 58  1  0
 37 59  1  0
 37 60  1  0
 39 61  1  0
 41 62  1  0
 41 63  1  0
M  END
> <Name>
Molecule

> <Clean Energy>
60.2933

> <From>
www.bindingDB.org

> <BindingDB Reactant_set_id>
50713189

> <Ligand InChI>
InChI=1S/C25H21BrF2N4O7S3/c26-22-11-17(3-10-21(22)25(27,28)42(29,37)38)13-32(12-16-1-4-18(5-2-16)23-15-40-31-30-23)41(35,36)20-8-6-19(7-9-20)39-14-24(33)34/h1-11,15H,12-14H2,(H,33,34)(H2,29,37,38)

> <Ligand InChI Key>
FZLIVVKYVXXGCZ-UHFFFAOYSA-N

> <BindingDB MonomerID>
50362185

> <BindingDB Ligand Name>
CHEMBL1938818

> <Target Name>
Tyrosine-protein phosphatase non-receptor type 1

> <Target Source Organism According to Curator or DataSource>
Homo sapiens

> <IC50 (nM)>
47

> <Curation/DataSource>
ChEMBL

> <Article DOI>
10.1016/j.bmcl.2011.11.122

> <BindingDB Entry DOI>
10.7270/Q2ZS2X05

> <PMID>
22189136

> <Authors>
Patel, D; Jain, M; Shah, SR; Bahekar, R; Jadav, P; Joharapurkar, A; Dhanesha, N; Shaikh, M; Sairam, KV; Kapadnis, P

> <Institution>
M.S. University of Baroda

> <Link to Ligand in BindingDB>
http://www.bindingdb.org/bind/chemsearch/marvin/MolStructure.jsp?monomerid=50362185

> <Link to Ligand-Target Pair in BindingDB>
http://www.bindingdb.org/jsp/dbsearch/PrimarySearch_ki.jsp?energyterm=kJ/mole&tag=pol&polymerid=2622&target=Tyrosine-protein+phosphatase+non-receptor+type+1&column=ki&startPg=0&Increment=50&submit=Sea
rch
http://www.bindingdb.org/jsp/dbsearch/PrimarySearch_ki.jsp?energyterm=kJ/mole&tag=r21&monomerid=50362185&enzyme=Tyrosine-protein+phosphatase+non-receptor+type+1&column=ki&startPg=0&Increment=50&submit
=Search

> <PubChem CID of Ligand>
57394165

> <PubChem SID of Ligand>
136966247

> <ChEMBL ID of Ligand>
CHEMBL1938818

> <ZINC ID of Ligand>
ZINC82165167

> <Number of Protein Chains in Target (bigger than 1 implies a multichain complex)>
1

> <BindingDB Target Chain Sequence>
MEMEKEFEQIDKSGSWAAIYQDIRHEASDFPCRVAKLPKNKNRNRYRDVSPFDHSRIKLHQEDNDYINASLIKMEEAQRSYILTQGPLPNTCGHFWEMVWEQKSRGVVMLNRVMEKGSLKCAQYWPQKEEKEMIFEDTNLKLTLISEDIKSYYTVRQLELENLTTQETREILHFHYTTWPDFGVPESPASFLNFLFKVRE
SGSLSPEHGPVVVHCSAGIGRSGTFCLADTCLLLMDKRKDPSSVDIKKVLLEMRKFRMGLIQTADQLRFSYLAVIEGAKFIMGDSSVQDQWKELSHEDLEPPPEHIPPPPRPPKRILEPHNGKCREFFPNHQWVKEETQEDKDCPIKEEKGSPLNAAPYGIESMSQDTEVRSRVVGGSLRGAQAASPAKGEPSLPEKDED
HALSYWKPFLVNMCVATVLTAGAYLCYRFLFNSNT

> <PDB ID(s) of Target Chain>
1BZJ,1G7G,1GFY,1JF7,1KAK,1KAV,1LQF,1NL9,1NNY,1NO6,1NZ7,1OEM,1OEO,1OES,1OET,1OEU,1OEV,1ONY,1ONZ,1PH0,1PXH,1PYN,1Q1M,1Q6J,1Q6M,1Q6N,1Q6P,1Q6S,1Q6T,1QXK,1SUG,1T48,1T49,1T4J,1WAX,1XBO,2AZR,2B07,2BGD,2BGE,
2CM2,2CM3,2CM7,2CM8,2CMA,2CMB,2CMC,2CNE,2CNF,2CNG,2CNH,2CNI,2F6T,2F6V,2F6W,2F6Y,2F6Z,2F70,2F71,2FJN,2H4G,2H4K,2HB1,2HNP,2HNQ,2QBP,2QBQ,2QBR,2QBS,2VEU,2VEV,2VEW,2VEX,2VEY,2ZMM,2ZN7,3A5J,3CWE,3D9C,3EAX,
3EB1,3EU0,3I7Z,3I80,3SME,4BJO,4I8N,4QBW,4Y14,5K9V,5K9W,5KA0,5KA1,5T19,6B90,6NTP,6W30,7KEY,7KLX,7LFO,7MN9,7MNA,8DU7,8G65,8G67,8G68,8G69,8G6A,8SKL

> <UniProt (SwissProt) Recommended Name of Target Chain>
Tyrosine-protein phosphatase non-receptor type 1

> <UniProt (SwissProt) Entry Name of Target Chain>
PTN1_HUMAN

> <UniProt (SwissProt) Primary ID of Target Chain>
P18031

> <UniProt (SwissProt) Secondary ID(s) of Target Chain>
Q5TGD8 Q9BQV9 Q9NQQ4

$$$$
Molecule
  SciTegic10242319433D

 61 65  0  0  0  0            999 V2000
   18.9725  -23.6700   -0.0886 C   0  0
   18.8391  -25.1139   -0.2617 C   0  0
   19.9040  -25.9050   -0.1375 C   0  0
   21.2364  -25.3374    0.1557 C   0  0
   21.3433  -24.0272    0.3207 C   0  0
   20.1723  -23.1831    0.2068 C   0  0
   17.7222  -22.7777   -0.3374 C   0  0
   22.5180  -26.1829    0.1609 C   0  0  2  0  0  0
   17.5199  -21.3149    0.3235 C   0  0  2  0  0  0
   16.1798  -20.6902   -0.0489 N   0  0
   18.6597  -20.2856    0.1053 C   0  0
   19.8863  -20.6039   -0.0401 N   0  0
   18.5014  -18.8505    0.1137 N   0  0
   19.8015  -18.3838   -0.0332 C   0  0
   20.6350  -19.4725   -0.1311 C   0  0
   21.9488  -19.3846   -0.2612 C   0  0
   22.5308  -18.0342   -0.3141 C   0  0
   21.7290  -16.9619   -0.2247 C   0  0
   20.2584  -17.1355   -0.0704 C   0  0
   22.5208  -27.8609    0.9299 S   0  0
   24.2117  -27.7552    0.4718 N   0  0
   24.7530  -26.4751    0.3661 C   0  0
   23.7815  -25.4022    0.5222 C   0  0
   22.8565  -29.2246    0.3575 O   0  0
   21.2854  -28.1530    0.1152 O   0  0
   25.9407  -26.2646    0.0886 O   0  0
   14.7198  -21.2738    0.8341 S   0  0
   13.1743  -22.0443    0.3422 C   0  0
   15.1453  -22.6900    0.5335 O   0  0
   14.0661  -20.2212   -0.0427 O   0  0
   12.0585  -21.3193    0.2387 C   0  0
   10.7857  -21.9665   -0.1440 C   0  0
   10.7556  -23.2764   -0.3828 C   0  0
   11.9769  -24.0722   -0.2679 C   0  0
   13.1240  -23.4903    0.0771 C   0  0
    9.6005  -21.2225   -0.2542 O   0  0
    9.8280  -19.8402    0.0465 C   0  0
   17.8655  -25.5457   -0.4934 H   0  0
   19.7911  -26.9830   -0.2534 H   0  0
   22.3141  -23.5840    0.5427 H   0  0
   20.2792  -22.1105    0.3691 H   0  0
   16.8656  -23.3701   -0.0160 H   0  0
   17.6755  -22.6257   -1.4158 H   0  0
   22.6654  -26.4028   -0.8965 H   0  0
   17.4771  -21.4821    1.3997 H   0  0
   16.0191  -20.8726   -1.0909 H   0  0
   17.5994  -18.2830    0.2099 H   0  0
   22.5738  -20.2753   -0.3265 H   0  0
   23.6074  -17.9055   -0.4253 H   0  0
   22.1561  -15.9599   -0.2652 H   0  0
   19.5879  -16.2797    0.0084 H   0  0
   24.7981  -28.6301    0.2831 H   0  0
   23.7508  -25.0221    1.5433 H   0  0
   23.9659  -24.5784   -0.1674 H   0  0
   12.0858  -20.2478    0.4366 H   0  0
    9.8184  -23.7563   -0.6646 H   0  0
   11.9483  -25.1439   -0.4649 H   0  0
   14.0308  -24.0889    0.1634 H   0  0
    8.8925  -19.2887   -0.0471 H   0  0
   10.5608  -19.4322   -0.6497 H   0  0
   10.2039  -19.7466    1.0654 H   0  0
 17 18  2  0
  9  7  1  0
 18 19  1  0
 19 14  2  0
  8 20  1  0
  4  5  2  0
  9 10  1  0
  2  3  2  0
  9 11  1  0
 20 21  1  0
 21 22  1  0
 22 23  1  0
  8 23  1  0
 11 12  2  0
 20 24  2  0
  5  6  1  0
 20 25  2  0
  6  1  2  0
 22 26  2  0
 12 15  1  0
 10 27  1  0
 14 13  1  0
 27 28  1  0
 13 11  1  0
 27 29  2  0
  1  2  1  0
 27 30  2  0
  1  7  1  0
 28 31  2  0
 14 15  1  0
 31 32  1  0
  3  4  1  0
 32 33  2  0
 15 16  2  0
 33 34  1  0
  4  8  1  0
 34 35  2  0
 35 28  1  0
 16 17  1  0
 32 36  1  0
 36 37  1  0
  2 38  1  0
  3 39  1  0
  5 40  1  0
  6 41  1  0
  7 42  1  0
  7 43  1  0
  8 44  1  0
  9 45  1  0
 10 46  1  0
 13 47  1  0
 16 48  1  0
 17 49  1  0
 18 50  1  0
 19 51  1  0
 21 52  1  0
 23 53  1  0
 23 54  1  0
 31 55  1  0
 33 56  1  0
 34 57  1  0
 35 58  1  0
 37 59  1  0
 37 60  1  0
 37 61  1  0
M  END
> <Name>
Molecule

> <Clean Energy>
234.023

> <From>
www.bindingDB.org

> <BindingDB Reactant_set_id>
50350937

> <Ligand InChI>
InChI=1S/C25H24N4O6S2/c1-35-18-5-4-6-19(14-18)36(31,32)28-22(25-26-20-7-2-3-8-21(20)27-25)13-16-9-11-17(12-10-16)23-15-24(30)29-37(23,33)34/h2-12,14,22-23,28H,13,15H2,1H3,(H,26,27)(H,29,30)

> <Ligand InChI Key>
YGFRTSPJHCKERI-UHFFFAOYSA-N

> <BindingDB MonomerID>
50189658

> <BindingDB Ligand Name>
CHEMBL377735::N-{1-(1H-benzoimidazol-2-yl)-2-[4-(1,1,3-trioxo-1lambda*6*-isothiazolidin-5-yl)-phenyl]-ethyl}-3-methoxy-benzenesulfonamide

> <Target Name>
Tyrosine-protein phosphatase non-receptor type 1

> <Target Source Organism According to Curator or DataSource>
Homo sapiens

> <IC50 (nM)>
48

> <Curation/DataSource>
ChEMBL

> <Article DOI>
10.1021/jm0600904

> <BindingDB Entry DOI>
10.7270/Q2JQ10M8

> <PMID>
16789735

> <Authors>
Combs, AP; Zhu, W; Crawley, ML; Glass, B; Polam, P; Sparks, RB; Modi, D; Takvorian, A; McLaughlin, E; Yue, EW; Wasserman, Z; Bower, M; Wei, M; Rupar, M; Ala, PJ; Reid, BM; Ellis, D; Gonneville, L; Emm
, T; Taylor, N; Yeleswaram, S; Li, Y; Wynn, R; Burn, TC; Hollis, G; Liu, PC; Metcalf, B

> <Institution>
Incyte Corporation

> <Link to Ligand in BindingDB>
http://www.bindingdb.org/bind/chemsearch/marvin/MolStructure.jsp?monomerid=50189658

> <Link to Ligand-Target Pair in BindingDB>
http://www.bindingdb.org/jsp/dbsearch/PrimarySearch_ki.jsp?energyterm=kJ/mole&tag=pol&polymerid=2622&target=Tyrosine-protein+phosphatase+non-receptor+type+1&column=ki&startPg=0&Increment=50&submit=Sea
rch
http://www.bindingdb.org/jsp/dbsearch/PrimarySearch_ki.jsp?energyterm=kJ/mole&tag=r21&monomerid=50189658&enzyme=Tyrosine-protein+phosphatase+non-receptor+type+1&column=ki&startPg=0&Increment=50&submit
=Search

> <PubChem CID of Ligand>
21879063

> <PubChem SID of Ligand>
104073179

> <ChEMBL ID of Ligand>
CHEMBL377735

> <ZINC ID of Ligand>
ZINC36088715

> <Number of Protein Chains in Target (bigger than 1 implies a multichain complex)>
1

> <BindingDB Target Chain Sequence>
MEMEKEFEQIDKSGSWAAIYQDIRHEASDFPCRVAKLPKNKNRNRYRDVSPFDHSRIKLHQEDNDYINASLIKMEEAQRSYILTQGPLPNTCGHFWEMVWEQKSRGVVMLNRVMEKGSLKCAQYWPQKEEKEMIFEDTNLKLTLISEDIKSYYTVRQLELENLTTQETREILHFHYTTWPDFGVPESPASFLNFLFKVRE
SGSLSPEHGPVVVHCSAGIGRSGTFCLADTCLLLMDKRKDPSSVDIKKVLLEMRKFRMGLIQTADQLRFSYLAVIEGAKFIMGDSSVQDQWKELSHEDLEPPPEHIPPPPRPPKRILEPHNGKCREFFPNHQWVKEETQEDKDCPIKEEKGSPLNAAPYGIESMSQDTEVRSRVVGGSLRGAQAASPAKGEPSLPEKDED
HALSYWKPFLVNMCVATVLTAGAYLCYRFLFNSNT

> <PDB ID(s) of Target Chain>
1BZJ,1G7G,1GFY,1JF7,1KAK,1KAV,1LQF,1NL9,1NNY,1NO6,1NZ7,1OEM,1OEO,1OES,1OET,1OEU,1OEV,1ONY,1ONZ,1PH0,1PXH,1PYN,1Q1M,1Q6J,1Q6M,1Q6N,1Q6P,1Q6S,1Q6T,1QXK,1SUG,1T48,1T49,1T4J,1WAX,1XBO,2AZR,2B07,2BGD,2BGE,
2CM2,2CM3,2CM7,2CM8,2CMA,2CMB,2CMC,2CNE,2CNF,2CNG,2CNH,2CNI,2F6T,2F6V,2F6W,2F6Y,2F6Z,2F70,2F71,2FJN,2H4G,2H4K,2HB1,2HNP,2HNQ,2QBP,2QBQ,2QBR,2QBS,2VEU,2VEV,2VEW,2VEX,2VEY,2ZMM,2ZN7,3A5J,3CWE,3D9C,3EAX,
3EB1,3EU0,3I7Z,3I80,3SME,4BJO,4I8N,4QBW,4Y14,5K9V,5K9W,5KA0,5KA1,5T19,6B90,6NTP,6W30,7KEY,7KLX,7LFO,7MN9,7MNA,8DU7,8G65,8G67,8G68,8G69,8G6A,8SKL

> <UniProt (SwissProt) Recommended Name of Target Chain>
Tyrosine-protein phosphatase non-receptor type 1

> <UniProt (SwissProt) Entry Name of Target Chain>
PTN1_HUMAN

> <UniProt (SwissProt) Primary ID of Target Chain>
P18031

> <UniProt (SwissProt) Secondary ID(s) of Target Chain>
Q5TGD8 Q9BQV9 Q9NQQ4

$$$$
2
  SciTegic10242319433D

 65 69  0  0  0  0            999 V2000
    0.5421    2.9358    0.5727 C   0  0
   -0.1756    2.1886    1.4203 C   0  0
   -0.2584    0.7145    1.2509 C   0  0
    1.1865    0.9894   -0.6719 C   0  0
    1.2597    2.3013   -0.5096 C   0  0
    0.6077    4.4381    0.7528 C   0  0
   -0.3414    4.8249    1.6707 F   0  0
    1.8638    4.7705    1.2133 F   0  0
    0.3976    5.2619   -0.6962 P   0  0
    0.4743    6.7852   -0.4187 O   0  0
    1.5031    4.8941   -1.7239 O   0  0
   -0.8406    4.9580   -1.2252 O   0  0
    0.3872    0.1494    0.2274 C   0  0
    0.4113   -1.3639   -0.1205 C   0  0
   -1.9043   -3.6118    0.2151 C   0  0
   -2.9298   -3.7066   -0.9216 C   0  0
   -3.9589   -4.5523   -0.8814 C   0  0
   -4.1295   -5.4318    0.2564 C   0  0
   -3.2549   -5.3899    1.2590 C   0  0
   -2.0990   -4.4607    1.2298 C   0  0
    0.6880   -3.6128   -0.2377 N   0  0
    1.8512   -3.0049   -0.7035 N   0  0
    2.7945   -3.7834   -0.7889 N   0  0
    1.0524   -4.9753   -0.0341 C   0  0
    2.3874   -5.0432   -0.3881 C   0  0
    0.4023   -6.0594    0.4042 C   0  0
    1.1679   -7.3333    0.4836 C   0  0
    2.4615   -7.3701    0.1351 C   0  0
    3.1196   -6.1410   -0.3308 C   0  0
   -0.4843   -2.7154    0.1929 C   0  0  2  0  0  0
   -1.2967   -1.9729   -1.0447 C   0  0
   -2.2940   -0.7616   -0.5811 C   0  0
   -3.5542   -0.5187   -0.9703 C   0  0
   -4.2374    0.7309   -0.4765 C   0  0
   -6.1984    2.1473   -0.1558 C   0  0
   -5.5533    0.9010   -0.6244 C   0  0
   -3.4439    1.8049    0.1477 C   0  0
   -4.0248    2.9343    0.5568 C   0  0
   -5.4684    3.1140    0.4005 C   0  0
   -0.7053    2.6668    2.2442 H   0  0
   -0.8347    0.1065    1.9482 H   0  0
    1.7322    0.5228   -1.4920 H   0  0
    1.8608    2.9025   -1.1917 H   0  0
   -0.2813    7.0566    0.2580 H   0  0
    2.4440    5.1458   -1.3317 H   0  0
    0.4116   -1.3432   -1.2103 H   0  0
    1.3971   -1.6604    0.2380 H   0  0
   -2.8129   -3.0605   -1.7916 H   0  0
   -4.6723   -4.5821   -1.7050 H   0  0
   -4.9701   -6.1249    0.2916 H   0  0
   -3.3904   -6.0496    2.1161 H   0  0
   -1.3897   -4.4701    2.0573 H   0  0
   -0.6480   -6.0115    0.6920 H   0  0
    0.6735   -8.2418    0.8275 H   0  0
    3.0208   -8.3036    0.1966 H   0  0
    4.1711   -6.1357   -0.6178 H   0  0
   -0.5603   -1.5605   -1.7344 H   0  0
   -1.8942   -2.7262   -1.5581 H   0  0
   -1.8787   -0.0581    0.1405 H   0  0
   -4.0746   -1.2119   -1.6313 H   0  0
   -7.2752    2.2755   -0.2659 H   0  0
   -6.1535    0.1201   -1.0913 H   0  0
   -2.3694    1.6748    0.2766 H   0  0
   -3.4234    3.7237    1.0077 H   0  0
   -5.9450    4.0345    0.7376 H   0  0
  1  2  2  0
  1  5  1  0
  2  3  1  0
  3 13  2  0
 13  4  1  0
  4  5  2  0
  1  6  1  0
  6  9  1  0
  6  7  1  0
  6  8  1  0
  9 11  1  0
  9 12  2  0
  9 10  1  0
 13 14  1  0
 14 30  1  0
 30 21  1  0
 30 15  1  0
 20 15  2  0
 16 15  1  0
 16 17  2  0
 17 18  1  0
 18 19  2  0
 19 20  1  0
 22 21  1  0
 21 24  1  0
 22 23  2  0
 25 23  1  0
 26 24  2  0
 24 25  1  0
 29 25  2  0
 26 27  1  0
 27 28  2  0
 28 29  1  0
 30 31  1  0
 31 32  1  0
 32 33  2  0
 33 34  1  0
 36 34  2  0
 34 37  1  0
 35 36  1  0
 35 39  2  0
 37 38  2  0
 38 39  1  0
  2 40  1  0
  3 41  1  0
  4 42  1  0
  5 43  1  0
 10 44  1  0
 11 45  1  0
 14 46  1  0
 14 47  1  0
 16 48  1  0
 17 49  1  0
 18 50  1  0
 19 51  1  0
 20 52  1  0
 26 53  1  0
 27 54  1  0
 28 55  1  0
 29 56  1  0
 31 57  1  0
 31 58  1  0
 32 59  1  0
 33 60  1  0
 35 61  1  0
 36 62  1  0
 37 63  1  0
 38 64  1  0
 39 65  1  0
M  END
> <Name>
2

> <Clean Energy>
188.29

> <From>
www.bindingDB.org

> <BindingDB Reactant_set_id>
50596962

> <Ligand InChI>
InChI=1S/C30H26F2N3O3P/c31-30(32,39(36,37)38)26-19-17-24(18-20-26)22-29(25-13-5-2-6-14-25,21-9-12-23-10-3-1-4-11-23)35-28-16-8-7-15-27(28)33-34-35/h1-20H,21-22H2,(H2,36,37,38)/b12-9+

> <Ligand InChI Key>
DZAZPBQYQDQTEN-FMIVXFBMSA-N

> <BindingDB MonomerID>
13815

> <BindingDB Ligand Name>
({4-[(4E)-2-(1H-1,2,3-benzotriazol-1-yl)-2,5-diphenylpent-4-en-1-yl]phenyl}difluoromethyl)phosphonic acid::CHEMBL416145::benzotriazole phenyldifluoromethylphosphonic acid compound 2

> <Target Name>
Tyrosine-protein phosphatase non-receptor type 1

> <Target Source Organism According to Curator or DataSource>
Homo sapiens

> <IC50 (nM)>
49

> <Curation/DataSource>
ChEMBL

> <Article DOI>
10.1016/j.bmcl.2003.11.076

> <BindingDB Entry DOI>
10.7270/Q24M9404

> <PMID>
15013020

> <Authors>
Lau, CK; Bayly, CI; Gauthier, JY; Li, CS; Therien, M; Asante-Appiah, E; Cromlish, W; Boie, Y; Forghani, F; Desmarais, S; Wang, Q; Skorey, K; Waddleton, D; Payette, P; Ramachandran, C; Kennedy, BP; Sca
pin, G

> <Institution>
Merck Frosst Centre for Therapeutic Research

> <Link to Ligand in BindingDB>
http://www.bindingdb.org/bind/chemsearch/marvin/MolStructure.jsp?monomerid=13815

> <Link to Ligand-Target Pair in BindingDB>
http://www.bindingdb.org/jsp/dbsearch/PrimarySearch_ki.jsp?energyterm=kJ/mole&tag=pol&polymerid=2622&target=Tyrosine-protein+phosphatase+non-receptor+type+1&column=ki&startPg=0&Increment=50&submit=Sea
rch
http://www.bindingdb.org/jsp/dbsearch/PrimarySearch_ki.jsp?energyterm=kJ/mole&tag=r21&monomerid=13815&enzyme=Tyrosine-protein+phosphatase+non-receptor+type+1&column=ki&startPg=0&Increment=50&submit=Se
arch

> <PubChem CID of Ligand>
23646522

> <PubChem SID of Ligand>
46514194

> <ChEMBL ID of Ligand>
CHEMBL416145

> <ZINC ID of Ligand>
ZINC14953995

> <Number of Protein Chains in Target (bigger than 1 implies a multichain complex)>
1

> <BindingDB Target Chain Sequence>
MEMEKEFEQIDKSGSWAAIYQDIRHEASDFPCRVAKLPKNKNRNRYRDVSPFDHSRIKLHQEDNDYINASLIKMEEAQRSYILTQGPLPNTCGHFWEMVWEQKSRGVVMLNRVMEKGSLKCAQYWPQKEEKEMIFEDTNLKLTLISEDIKSYYTVRQLELENLTTQETREILHFHYTTWPDFGVPESPASFLNFLFKVRE
SGSLSPEHGPVVVHCSAGIGRSGTFCLADTCLLLMDKRKDPSSVDIKKVLLEMRKFRMGLIQTADQLRFSYLAVIEGAKFIMGDSSVQDQWKELSHEDLEPPPEHIPPPPRPPKRILEPHNGKCREFFPNHQWVKEETQEDKDCPIKEEKGSPLNAAPYGIESMSQDTEVRSRVVGGSLRGAQAASPAKGEPSLPEKDED
HALSYWKPFLVNMCVATVLTAGAYLCYRFLFNSNT

> <PDB ID(s) of Target Chain>
1BZJ,1G7G,1GFY,1JF7,1KAK,1KAV,1LQF,1NL9,1NNY,1NO6,1NZ7,1OEM,1OEO,1OES,1OET,1OEU,1OEV,1ONY,1ONZ,1PH0,1PXH,1PYN,1Q1M,1Q6J,1Q6M,1Q6N,1Q6P,1Q6S,1Q6T,1QXK,1SUG,1T48,1T49,1T4J,1WAX,1XBO,2AZR,2B07,2BGD,2BGE,
2CM2,2CM3,2CM7,2CM8,2CMA,2CMB,2CMC,2CNE,2CNF,2CNG,2CNH,2CNI,2F6T,2F6V,2F6W,2F6Y,2F6Z,2F70,2F71,2FJN,2H4G,2H4K,2HB1,2HNP,2HNQ,2QBP,2QBQ,2QBR,2QBS,2VEU,2VEV,2VEW,2VEX,2VEY,2ZMM,2ZN7,3A5J,3CWE,3D9C,3EAX,
3EB1,3EU0,3I7Z,3I80,3SME,4BJO,4I8N,4QBW,4Y14,5K9V,5K9W,5KA0,5KA1,5T19,6B90,6NTP,6W30,7KEY,7KLX,7LFO,7MN9,7MNA,8DU7,8G65,8G67,8G68,8G69,8G6A,8SKL

> <UniProt (SwissProt) Recommended Name of Target Chain>
Tyrosine-protein phosphatase non-receptor type 1

> <UniProt (SwissProt) Entry Name of Target Chain>
PTN1_HUMAN

> <UniProt (SwissProt) Primary ID of Target Chain>
P18031

> <UniProt (SwissProt) Secondary ID(s) of Target Chain>
Q5TGD8 Q9BQV9 Q9NQQ4

$$$$
Molecule
  SciTegic10242319433D

 83 86  0  0  0  0            999 V2000
    5.0666    2.0719   -0.9752 O   0  0
    4.1142    1.1931   -0.1864 S   0  0
    4.6484    1.0365    1.2250 O   0  0
   -4.7018   -3.0665    0.8552 O   0  0
   -3.8151   -3.8922   -0.0581 S   0  0
   -4.3002   -3.6998   -1.4828 O   0  0
    1.3929   -0.0956    0.2665 C   0  0
    1.2834    1.1806    0.0053 C   0  0
   -0.0958    1.7358   -0.1809 C   0  0
   -1.1655    0.9107   -0.1315 C   0  0
   -0.9630   -0.5508    0.1166 C   0  0
    0.2711   -0.9272    0.3224 C   0  0
   -2.1873   -1.6065    0.1152 C   0  0
   -2.1547   -3.2217    0.0415 N   0  0
   -0.9062   -4.1752   -0.0068 C   0  0
   -4.0256   -5.6680    0.3899 C   0  0
   -5.4251   -6.2076    0.2379 C   0  0
   -5.6189   -7.5206    0.3664 C   0  0
   -6.9588   -8.0894    0.2247 C   0  0
   -7.9929   -7.2914   -0.0316 C   0  0
   -7.7842   -5.8454   -0.1739 C   0  0
   -6.5613   -5.3286   -0.0479 C   0  0
   -0.9960   -5.5099   -0.0268 C   0  0
    0.2188   -6.3819   -0.0420 C   0  0
    1.4295   -5.8275   -0.0341 C   0  0
    1.5147   -4.4195   -0.0331 C   0  0
    0.4233   -3.6851   -0.0218 C   0  0
    2.6227   -6.5747   -0.0323 O   0  0
    3.7300   -5.6368   -0.0131 C   0  0
    5.0566   -6.3113   -0.0050 C   0  0
    6.1646   -5.5707    0.0026 C   0  0
    7.4759   -6.2141    0.0066 C   0  0
    7.5602   -7.5427    0.0024 C   0  0
    6.3391   -8.3561   -0.0048 C   0  0
    5.1449   -7.7669   -0.0082 C   0  0
    2.4871    1.9666   -0.1124 N   0  0
    2.3440    3.4123   -0.2465 C   0  0
    4.2081   -0.4354   -1.0310 C   0  0
    3.5870    4.2127    0.1214 C   0  0
    3.6314    5.5713   -0.1652 O   0  0
    4.5584    3.6809    0.6705 O   0  0
    4.8943    6.1071    0.2427 C   0  0
    0.0662   -7.8281   -0.0418 C   0  0
    1.0618   -8.5610   -0.0429 O   0  0
   -1.2086   -8.3804   -0.0385 O   0  0
   -1.1145   -9.8048   -0.0369 C   0  0
    8.9043   -8.2074    0.0044 C   0  0
    2.3808   -0.5204    0.4447 H   0  0
   -0.2363    2.8025   -0.3557 H   0  0
   -2.1706    1.3082   -0.2718 H   0  0
    0.4400   -1.9781    0.5575 H   0  0
   -2.7280   -1.3911    1.0368 H   0  0
   -2.7946   -1.3115   -0.7405 H   0  0
   -3.3663   -6.2568   -0.2479 H   0  0
   -3.7286   -5.7903    1.4315 H   0  0
   -4.7730   -8.1745    0.5785 H   0  0
   -7.1103   -9.1638    0.3286 H   0  0
   -8.9935   -7.7112   -0.1357 H   0  0
   -8.6313   -5.1921   -0.3831 H   0  0
   -6.4077   -4.2550   -0.1573 H   0  0
   -1.9820   -5.9747   -0.0320 H   0  0
    2.4918   -3.9365   -0.0419 H   0  0
    0.5533   -2.6029   -0.0242 H   0  0
    3.6662   -5.0046   -0.8988 H   0  0
    3.6478   -5.0193    0.8814 H   0  0
    6.0922   -4.4831    0.0058 H   0  0
    8.3822   -5.6086    0.0130 H   0  0
    6.4096   -9.4438   -0.0073 H   0  0
    4.2371   -8.3702   -0.0134 H   0  0
    2.0926    3.6336   -1.2838 H   0  0
    1.5290    3.7341    0.4020 H   0  0
    3.5487   -1.1438   -0.5296 H   0  0
    5.2328   -0.8054   -0.9950 H   0  0
    3.8986   -0.3246   -2.0703 H   0  0
    4.9273    7.1730    0.0171 H   0  0
    5.6956    5.5980   -0.2929 H   0  0
    5.0231    5.9591    1.3149 H   0  0
   -2.1157  -10.2356   -0.0343 H   0  0
   -0.5761  -10.1329    0.8523 H   0  0
   -0.5798  -10.1351   -0.9275 H   0  0
    8.7749   -9.2897    0.0003 H   0  0
    9.4554   -7.9112    0.8970 H   0  0
    9.4609   -7.9052   -0.8828 H   0  0
  2  1  2  0
  3  2  2  0
  5  4  2  0
  6  5  2  0
  7  8  2  0
  8  9  1  0
  9 10  2  0
 10 11  1  0
 11 12  2  0
 12  7  1  0
 11 13  1  0
 13 14  1  0
 14 15  1  0
 14  5  1  0
  5 16  1  0
 16 17  1  0
 17 18  2  0
 18 19  1  0
 19 20  2  0
 20 21  1  0
 21 22  2  0
 22 17  1  0
 15 23  2  0
 23 24  1  0
 24 25  2  0
 25 26  1  0
 26 27  2  0
 27 15  1  0
 25 28  1  0
 28 29  1  0
 29 30  1  0
 30 31  2  0
 31 32  1  0
 32 33  2  0
 33 34  1  0
 34 35  2  0
 35 30  1  0
  8 36  1  0
 36 37  1  0
 36  2  1  0
  2 38  1  0
 37 39  1  0
 39 40  1  0
 39 41  2  0
 40 42  1  0
 24 43  1  0
 43 44  2  0
 43 45  1  0
 45 46  1  0
 33 47  1  0
  7 48  1  0
  9 49  1  0
 10 50  1  0
 12 51  1  0
 13 52  1  0
 13 53  1  0
 16 54  1  0
 16 55  1  0
 18 56  1  0
 19 57  1  0
 20 58  1  0
 21 59  1  0
 22 60  1  0
 23 61  1  0
 26 62  1  0
 27 63  1  0
 29 64  1  0
 29 65  1  0
 31 66  1  0
 32 67  1  0
 34 68  1  0
 35 69  1  0
 37 70  1  0
 37 71  1  0
 38 72  1  0
 38 73  1  0
 38 74  1  0
 42 75  1  0
 42 76  1  0
 42 77  1  0
 46 78  1  0
 46 79  1  0
 46 80  1  0
 47 81  1  0
 47 82  1  0
 47 83  1  0
M  END
> <Name>
Molecule

> <Clean Energy>
44.1941

> <From>
www.bindingDB.org

> <BindingDB Reactant_set_id>
50505838

> <Ligand InChI>
InChI=1S/C34H36N2O9S2/c1-25-10-12-27(13-11-25)23-45-32-19-18-30(20-31(32)34(38)44-3)36(47(41,42)24-28-8-6-5-7-9-28)21-26-14-16-29(17-15-26)35(46(4,39)40)22-33(37)43-2/h5-20H,21-24H2,1-4H3

> <Ligand InChI Key>
IPNJQCVHNPGYOX-UHFFFAOYSA-N

> <BindingDB MonomerID>
50184997

> <BindingDB Ligand Name>
CHEMBL3822604

> <Target Name>
Tyrosine-protein phosphatase non-receptor type 1

> <Target Source Organism According to Curator or DataSource>
Homo sapiens

> <IC50 (nM)>
50

> <Curation/DataSource>
ChEMBL

> <Article DOI>
10.1016/j.ejmech.2016.04.014

> <BindingDB Entry DOI>
10.7270/Q2JS9SCC

> <PMID>
27123900

> <Authors>
Liu, P; Du, Y; Song, L; Shen, J; Li, Q

> <Institution>
Qilu University of Technology

> <Link to Ligand in BindingDB>
http://www.bindingdb.org/bind/chemsearch/marvin/MolStructure.jsp?monomerid=50184997

> <Link to Ligand-Target Pair in BindingDB>
http://www.bindingdb.org/jsp/dbsearch/PrimarySearch_ki.jsp?energyterm=kJ/mole&tag=pol&polymerid=2622&target=Tyrosine-protein+phosphatase+non-receptor+type+1&column=ki&startPg=0&Increment=50&submit=Sea
rch
http://www.bindingdb.org/jsp/dbsearch/PrimarySearch_ki.jsp?energyterm=kJ/mole&tag=r21&monomerid=50184997&enzyme=Tyrosine-protein+phosphatase+non-receptor+type+1&column=ki&startPg=0&Increment=50&submit
=Search

> <PubChem CID of Ligand>
127050086

> <PubChem SID of Ligand>
346550480

> <ChEMBL ID of Ligand>
CHEMBL3822604

> <Number of Protein Chains in Target (bigger than 1 implies a multichain complex)>
1

> <BindingDB Target Chain Sequence>
MEMEKEFEQIDKSGSWAAIYQDIRHEASDFPCRVAKLPKNKNRNRYRDVSPFDHSRIKLHQEDNDYINASLIKMEEAQRSYILTQGPLPNTCGHFWEMVWEQKSRGVVMLNRVMEKGSLKCAQYWPQKEEKEMIFEDTNLKLTLISEDIKSYYTVRQLELENLTTQETREILHFHYTTWPDFGVPESPASFLNFLFKVRE
SGSLSPEHGPVVVHCSAGIGRSGTFCLADTCLLLMDKRKDPSSVDIKKVLLEMRKFRMGLIQTADQLRFSYLAVIEGAKFIMGDSSVQDQWKELSHEDLEPPPEHIPPPPRPPKRILEPHNGKCREFFPNHQWVKEETQEDKDCPIKEEKGSPLNAAPYGIESMSQDTEVRSRVVGGSLRGAQAASPAKGEPSLPEKDED
HALSYWKPFLVNMCVATVLTAGAYLCYRFLFNSNT

> <PDB ID(s) of Target Chain>
1BZJ,1G7G,1GFY,1JF7,1KAK,1KAV,1LQF,1NL9,1NNY,1NO6,1NZ7,1OEM,1OEO,1OES,1OET,1OEU,1OEV,1ONY,1ONZ,1PH0,1PXH,1PYN,1Q1M,1Q6J,1Q6M,1Q6N,1Q6P,1Q6S,1Q6T,1QXK,1SUG,1T48,1T49,1T4J,1WAX,1XBO,2AZR,2B07,2BGD,2BGE,
2CM2,2CM3,2CM7,2CM8,2CMA,2CMB,2CMC,2CNE,2CNF,2CNG,2CNH,2CNI,2F6T,2F6V,2F6W,2F6Y,2F6Z,2F70,2F71,2FJN,2H4G,2H4K,2HB1,2HNP,2HNQ,2QBP,2QBQ,2QBR,2QBS,2VEU,2VEV,2VEW,2VEX,2VEY,2ZMM,2ZN7,3A5J,3CWE,3D9C,3EAX,
3EB1,3EU0,3I7Z,3I80,3SME,4BJO,4I8N,4QBW,4Y14,5K9V,5K9W,5KA0,5KA1,5T19,6B90,6NTP,6W30,7KEY,7KLX,7LFO,7MN9,7MNA,8DU7,8G65,8G67,8G68,8G69,8G6A,8SKL

> <UniProt (SwissProt) Recommended Name of Target Chain>
Tyrosine-protein phosphatase non-receptor type 1

> <UniProt (SwissProt) Entry Name of Target Chain>
PTN1_HUMAN

> <UniProt (SwissProt) Primary ID of Target Chain>
P18031

> <UniProt (SwissProt) Secondary ID(s) of Target Chain>
Q5TGD8 Q9BQV9 Q9NQQ4

$$$$
Molecule
  SciTegic10242319433D

 56 60  0  0  0  0            999 V2000
    7.9780   -7.0320   -0.3719 C   0  0
    7.9438   -8.3438   -0.6264 C   0  0
    9.1603   -9.1796   -0.4046 C   0  0
   10.2926   -8.6073    0.0138 C   0  0
   10.3131   -7.1835    0.2603 C   0  0
    9.2165   -6.4730    0.0847 C   0  0
    6.7082   -6.1473   -0.6322 C   0  0
   11.5354   -9.4076    0.2926 C   0  0  1  0  0  0
    6.4835   -4.7082    0.1074 C   0  0  2  0  0  0
    5.0974   -4.1774   -0.3007 N   0  0
    7.6209   -3.6292   -0.0667 C   0  0
    8.8816   -3.9296   -0.0537 N   0  0
    7.4586   -2.2040   -0.1359 N   0  0
    8.7771   -1.7067   -0.1790 C   0  0
    9.6086   -2.7926   -0.1331 C   0  0
   10.9499   -2.6881   -0.1509 C   0  0
   11.5135   -1.3340   -0.2317 C   0  0
   10.6960   -0.2718   -0.2781 C   0  0
    9.2137   -0.4694   -0.2478 C   0  0
   11.4449  -11.1553    0.1167 S   0  0
   13.0954  -11.3537    0.3618 N   0  5
   13.7325  -10.1571   -0.0816 C   0  0
   12.7610   -9.0708   -0.5842 C   0  0
   11.0741  -11.5475   -1.3008 O   0  0
   10.5365  -11.8017    1.1444 O   0  0
   14.9589  -10.0016   -0.0650 O   0  0
    3.8772   -5.0045    0.7137 S   0  0
    2.2617   -5.4456    0.0922 C   0  0
    4.4648   -6.2881    1.2564 O   0  0
    3.5990   -4.0459    1.8523 O   0  0
    1.2809   -4.5446    0.0295 C   0  0
   -0.0902   -4.9781   -0.3013 C   0  0
   -0.3598   -6.2720   -0.4803 C   0  0
    0.7144   -7.2607   -0.3886 C   0  0
    1.9596   -6.8668   -0.1277 C   0  0
   11.7485   -6.3715    0.7893 Cl  0  0
    7.0271   -8.8034   -0.9960 H   0  0
    9.1249  -10.2542   -0.5836 H   0  0
    9.2535   -5.4047    0.2977 H   0  0
    5.8489   -6.7631   -0.3666 H   0  0
    6.6933   -5.9444   -1.7030 H   0  0
   11.8184   -9.2061    1.3258 H   0  0
    6.4260   -4.9203    1.1750 H   0  0
    4.9161   -4.3889   -1.3338 H   0  0
    6.5454   -1.6466   -0.1512 H   0  0
   11.5900   -3.5692   -0.1074 H   0  0
   12.5941   -1.1928   -0.2538 H   0  0
   11.1112    0.7342   -0.3378 H   0  0
    8.5261    0.3757   -0.2814 H   0  0
   13.1372   -8.0664   -0.3901 H   0  0
   12.5436   -9.1788   -1.6469 H   0  0
    1.4909   -3.4925    0.2218 H   0  0
   -0.8850   -4.2387   -0.3998 H   0  0
   -1.3794   -6.5923   -0.6945 H   0  0
    0.4959   -8.3187   -0.5337 H   0  0
    2.7607   -7.6041   -0.0770 H   0  0
  8  4  1  0
 17 18  2  0
  3  4  2  0
 18 19  1  0
 19 14  2  0
  8 20  1  0
  9  7  1  0
  1  2  2  0
  9 10  1  0
  4  5  1  0
 20 21  1  0
 21 22  1  0
 22 23  1  0
  8 23  1  0
  9 11  1  0
 20 24  2  0
 11 12  2  0
 20 25  2  0
 22 26  2  0
  5  6  2  0
 10 27  1  0
 12 15  1  0
 27 28  1  0
 14 13  1  0
 27 29  2  0
 13 11  1  0
 27 30  2  0
  6  1  1  0
 28 31  2  0
  2  3  1  0
 31 32  1  0
 14 15  1  0
 32 33  2  0
  1  7  1  0
 33 34  1  0
 15 16  2  0
 34 35  2  0
 35 28  1  0
  5 36  1  0
 16 17  1  0
  2 37  1  0
  3 38  1  0
  6 39  1  0
  7 40  1  0
  7 41  1  0
  8 42  1  0
  9 43  1  0
 10 44  1  0
 13 45  1  0
 16 46  1  0
 17 47  1  0
 18 48  1  0
 19 49  1  0
 23 50  1  0
 23 51  1  0
 31 52  1  0
 32 53  1  0
 33 54  1  0
 34 55  1  0
 35 56  1  0
M  CHG  1  21  -1
M  END
> <Name>
Molecule

> <Clean Energy>
101.87

> <From>
www.bindingDB.org

> <BindingDB Reactant_set_id>
50350936

> <Ligand InChI>
InChI=1S/C24H21ClN4O5S2/c25-18-12-15(10-11-17(18)22-14-23(30)29-36(22,33)34)13-21(24-26-19-8-4-5-9-20(19)27-24)28-35(31,32)16-6-2-1-3-7-16/h1-12,21-22,28H,13-14H2,(H2,26,27,29,30)/p-1/t21-,22-/m0/s1

> <Ligand InChI Key>
SSRXSPGUDXMVQE-VXKWHMMOSA-M

> <BindingDB MonomerID>
50189657

> <BindingDB Ligand Name>
CHEMBL208604::N-(1S)-1-(1H-benzimidazol-2-yl)-2-{3-chloro-4-[(5S)-1,1-dioxido-3-oxoisothiazolidin-5-yl]phenyl}ethylbenzenesulfonamide

> <Target Name>
Tyrosine-protein phosphatase non-receptor type 1

> <Target Source Organism According to Curator or DataSource>
Homo sapiens

> <IC50 (nM)>
50

> <Curation/DataSource>
ChEMBL

> <Article DOI>
10.1021/jm0600904

> <BindingDB Entry DOI>
10.7270/Q2JQ10M8

> <PMID>
16789735

> <Authors>
Combs, AP; Zhu, W; Crawley, ML; Glass, B; Polam, P; Sparks, RB; Modi, D; Takvorian, A; McLaughlin, E; Yue, EW; Wasserman, Z; Bower, M; Wei, M; Rupar, M; Ala, PJ; Reid, BM; Ellis, D; Gonneville, L; Emm
, T; Taylor, N; Yeleswaram, S; Li, Y; Wynn, R; Burn, TC; Hollis, G; Liu, PC; Metcalf, B

> <Institution>
Incyte Corporation

> <Link to Ligand in BindingDB>
http://www.bindingdb.org/bind/chemsearch/marvin/MolStructure.jsp?monomerid=50189657

> <Link to Ligand-Target Pair in BindingDB>
http://www.bindingdb.org/jsp/dbsearch/PrimarySearch_ki.jsp?energyterm=kJ/mole&tag=pol&polymerid=2622&target=Tyrosine-protein+phosphatase+non-receptor+type+1&column=ki&startPg=0&Increment=50&submit=Sea
rch
http://www.bindingdb.org/jsp/dbsearch/PrimarySearch_ki.jsp?energyterm=kJ/mole&tag=r21&monomerid=50189657&enzyme=Tyrosine-protein+phosphatase+non-receptor+type+1&column=ki&startPg=0&Increment=50&submit
=Search

> <PubChem CID of Ligand>
91936146

> <PubChem SID of Ligand>
104073178

> <ChEMBL ID of Ligand>
CHEMBL208604

> <ZINC ID of Ligand>
ZINC14953046

> <Number of Protein Chains in Target (bigger than 1 implies a multichain complex)>
1

> <BindingDB Target Chain Sequence>
MEMEKEFEQIDKSGSWAAIYQDIRHEASDFPCRVAKLPKNKNRNRYRDVSPFDHSRIKLHQEDNDYINASLIKMEEAQRSYILTQGPLPNTCGHFWEMVWEQKSRGVVMLNRVMEKGSLKCAQYWPQKEEKEMIFEDTNLKLTLISEDIKSYYTVRQLELENLTTQETREILHFHYTTWPDFGVPESPASFLNFLFKVRE
SGSLSPEHGPVVVHCSAGIGRSGTFCLADTCLLLMDKRKDPSSVDIKKVLLEMRKFRMGLIQTADQLRFSYLAVIEGAKFIMGDSSVQDQWKELSHEDLEPPPEHIPPPPRPPKRILEPHNGKCREFFPNHQWVKEETQEDKDCPIKEEKGSPLNAAPYGIESMSQDTEVRSRVVGGSLRGAQAASPAKGEPSLPEKDED
HALSYWKPFLVNMCVATVLTAGAYLCYRFLFNSNT

> <PDB ID(s) of Target Chain>
1BZJ,1G7G,1GFY,1JF7,1KAK,1KAV,1LQF,1NL9,1NNY,1NO6,1NZ7,1OEM,1OEO,1OES,1OET,1OEU,1OEV,1ONY,1ONZ,1PH0,1PXH,1PYN,1Q1M,1Q6J,1Q6M,1Q6N,1Q6P,1Q6S,1Q6T,1QXK,1SUG,1T48,1T49,1T4J,1WAX,1XBO,2AZR,2B07,2BGD,2BGE,
2CM2,2CM3,2CM7,2CM8,2CMA,2CMB,2CMC,2CNE,2CNF,2CNG,2CNH,2CNI,2F6T,2F6V,2F6W,2F6Y,2F6Z,2F70,2F71,2FJN,2H4G,2H4K,2HB1,2HNP,2HNQ,2QBP,2QBQ,2QBR,2QBS,2VEU,2VEV,2VEW,2VEX,2VEY,2ZMM,2ZN7,3A5J,3CWE,3D9C,3EAX,
3EB1,3EU0,3I7Z,3I80,3SME,4BJO,4I8N,4QBW,4Y14,5K9V,5K9W,5KA0,5KA1,5T19,6B90,6NTP,6W30,7KEY,7KLX,7LFO,7MN9,7MNA,8DU7,8G65,8G67,8G68,8G69,8G6A,8SKL

> <UniProt (SwissProt) Recommended Name of Target Chain>
Tyrosine-protein phosphatase non-receptor type 1

> <UniProt (SwissProt) Entry Name of Target Chain>
PTN1_HUMAN

> <UniProt (SwissProt) Primary ID of Target Chain>
P18031

> <UniProt (SwissProt) Secondary ID(s) of Target Chain>
Q5TGD8 Q9BQV9 Q9NQQ4

$$$$
Molecule
  SciTegic10242319433D

 60 64  0  0  0  0            999 V2000
   21.3132  -16.0075   -0.2320 C   0  0
   21.2579  -17.4799   -0.3352 C   0  0
   22.3514  -18.2086   -0.0805 C   0  0
   23.6089  -17.5343    0.2835 C   0  0
   23.6429  -16.2175    0.3747 C   0  0
   22.4630  -15.4533    0.1174 C   0  0
   20.0510  -15.1549   -0.5719 C   0  0
   24.8732  -18.2871    0.5255 C   0  0  1  0  0  0
   19.8207  -13.6743    0.0783 C   0  0  2  0  0  0
   18.4498  -13.0686   -0.2034 N   0  0
   20.9476  -12.6083   -0.0788 C   0  0
   22.1859  -12.8961   -0.2073 N   0  0
   20.7638  -11.1786   -0.0067 N   0  0
   22.0610  -10.6815   -0.0896 C   0  0
   22.9148  -11.7498   -0.2173 C   0  0
   24.2328  -11.6342   -0.2934 C   0  0
   24.7918  -10.2740   -0.2540 C   0  0
   23.9684   -9.2210   -0.1378 C   0  0
   22.4961   -9.4271   -0.0441 C   0  0
   24.9275  -19.9740    0.0621 S   0  0
   26.5855  -20.0963    0.3266 N   0  0
   27.1585  -18.7924    0.1743 C   0  0
   26.1431  -17.6609   -0.0861 C   0  0
   24.6320  -20.1501   -1.4145 O   0  0
   24.0468  -20.8449    0.9374 O   0  0
   28.3748  -18.5848    0.2500 O   0  0
   17.1266  -13.7123    0.8274 S   0  0
   15.5166  -14.4327    0.4858 C   0  0
   17.4446  -15.0741    0.2608 O   0  0
   16.3659  -12.5269    0.2616 O   0  0
   14.4265  -13.6763    0.3396 C   0  0
   13.1145  -14.3151    0.1116 C   0  0
   13.0190  -15.6450    0.0546 C   0  0
   14.2124  -16.4671    0.2045 C   0  0
   15.3951  -15.8953    0.4091 C   0  0
   11.6834  -16.3105   -0.1329 C   0  0
   11.3742  -16.3163   -1.4759 F   0  0
   11.7379  -17.6167    0.3145 F   0  0
   10.7056  -15.5856    0.5159 F   0  0
   20.3277  -17.9724   -0.6183 H   0  0
   22.3112  -19.2961   -0.1423 H   0  0
   24.5705  -15.7136    0.6461 H   0  0
   22.5122  -14.3686    0.2130 H   0  0
   20.0542  -15.0186   -1.6533 H   0  0
   19.1879  -15.7550   -0.2834 H   0  0
   25.0255  -18.2713    1.6047 H   0  0
   19.7992  -13.8670    1.1510 H   0  0
   18.2020  -13.2635   -1.2259 H   0  0
   19.8490  -10.6316    0.0878 H   0  0
   24.8756  -12.5101   -0.3815 H   0  0
   25.8693  -10.1225   -0.3189 H   0  0
   24.3783   -8.2113   -0.1119 H   0  0
   21.8079   -8.5879    0.0570 H   0  0
   27.1186  -20.9924    0.5667 H   0  0
   26.4251  -16.7403    0.4247 H   0  0
   26.0229  -17.4639   -1.1514 H   0  0
   14.5044  -12.5902    0.3884 H   0  0
   12.2232  -13.6996   -0.0103 H   0  0
   14.1354  -17.5529    0.1490 H   0  0
   16.2832  -16.5173    0.5209 H   0  0
 18 19  1  0
 19 14  2  0
  8 20  1  0
  4  5  2  0
  9 10  1  0
  2  3  2  0
  9 11  1  0
 20 21  1  0
 21 22  1  0
 22 23  1  0
  8 23  1  0
 11 12  2  0
 20 24  2  0
  5  6  1  0
 20 25  2  0
  6  1  2  0
 22 26  2  0
 12 15  1  0
 10 27  1  0
 14 13  1  0
 27 28  1  0
 13 11  1  0
 27 29  2  0
  1  2  1  0
 27 30  2  0
  1  7  1  0
 28 31  2  0
 14 15  1  0
 31 32  1  0
  3  4  1  0
 32 33  2  0
 15 16  2  0
 33 34  1  0
  4  8  1  0
 34 35  2  0
 35 28  1  0
 16 17  1  0
 33 36  1  0
 36 37  1  0
 17 18  2  0
 36 38  1  0
  9  7  1  0
 36 39  1  0
  2 40  1  0
  3 41  1  0
  5 42  1  0
  6 43  1  0
  7 44  1  0
  7 45  1  0
  8 46  1  0
  9 47  1  0
 10 48  1  0
 13 49  1  0
 16 50  1  0
 17 51  1  0
 18 52  1  0
 19 53  1  0
 21 54  1  0
 23 55  1  0
 23 56  1  0
 31 57  1  0
 32 58  1  0
 34 59  1  0
 35 60  1  0
M  END
> <Name>
Molecule

> <Clean Energy>
165.479

> <From>
www.bindingDB.org

> <BindingDB Reactant_set_id>
50350933

> <Ligand InChI>
InChI=1S/C25H21F3N4O5S2/c26-25(27,28)17-9-11-18(12-10-17)38(34,35)31-21(24-29-19-3-1-2-4-20(19)30-24)13-15-5-7-16(8-6-15)22-14-23(33)32-39(22,36)37/h1-12,21-22,31H,13-14H2,(H,29,30)(H,32,33)

> <Ligand InChI Key>
YAQSGZOHFMQRSK-UHFFFAOYSA-N

> <BindingDB MonomerID>
50189655

> <BindingDB Ligand Name>
CHEMBL207489::N-{1-(1H-benzoimidazol-2-yl)-2-[4-(1,1,3-trioxo-1lambda*6*-isothiazolidin-5-yl)-phenyl]-ethyl}-4-trifluoromethyl-benzenesulfonamide

> <Target Name>
Tyrosine-protein phosphatase non-receptor type 1

> <Target Source Organism According to Curator or DataSource>
Homo sapiens

> <IC50 (nM)>
51

> <Curation/DataSource>
ChEMBL

> <Article DOI>
10.1021/jm0600904

> <BindingDB Entry DOI>
10.7270/Q2JQ10M8

> <PMID>
16789735

> <Authors>
Combs, AP; Zhu, W; Crawley, ML; Glass, B; Polam, P; Sparks, RB; Modi, D; Takvorian, A; McLaughlin, E; Yue, EW; Wasserman, Z; Bower, M; Wei, M; Rupar, M; Ala, PJ; Reid, BM; Ellis, D; Gonneville, L; Emm
, T; Taylor, N; Yeleswaram, S; Li, Y; Wynn, R; Burn, TC; Hollis, G; Liu, PC; Metcalf, B

> <Institution>
Incyte Corporation

> <Link to Ligand in BindingDB>
http://www.bindingdb.org/bind/chemsearch/marvin/MolStructure.jsp?monomerid=50189655

> <Link to Ligand-Target Pair in BindingDB>
http://www.bindingdb.org/jsp/dbsearch/PrimarySearch_ki.jsp?energyterm=kJ/mole&tag=pol&polymerid=2622&target=Tyrosine-protein+phosphatase+non-receptor+type+1&column=ki&startPg=0&Increment=50&submit=Sea
rch
http://www.bindingdb.org/jsp/dbsearch/PrimarySearch_ki.jsp?energyterm=kJ/mole&tag=r21&monomerid=50189655&enzyme=Tyrosine-protein+phosphatase+non-receptor+type+1&column=ki&startPg=0&Increment=50&submit
=Search

> <PubChem CID of Ligand>
21879040

> <PubChem SID of Ligand>
104073176

> <ChEMBL ID of Ligand>
CHEMBL207489

> <ZINC ID of Ligand>
ZINC36088435

> <Number of Protein Chains in Target (bigger than 1 implies a multichain complex)>
1

> <BindingDB Target Chain Sequence>
MEMEKEFEQIDKSGSWAAIYQDIRHEASDFPCRVAKLPKNKNRNRYRDVSPFDHSRIKLHQEDNDYINASLIKMEEAQRSYILTQGPLPNTCGHFWEMVWEQKSRGVVMLNRVMEKGSLKCAQYWPQKEEKEMIFEDTNLKLTLISEDIKSYYTVRQLELENLTTQETREILHFHYTTWPDFGVPESPASFLNFLFKVRE
SGSLSPEHGPVVVHCSAGIGRSGTFCLADTCLLLMDKRKDPSSVDIKKVLLEMRKFRMGLIQTADQLRFSYLAVIEGAKFIMGDSSVQDQWKELSHEDLEPPPEHIPPPPRPPKRILEPHNGKCREFFPNHQWVKEETQEDKDCPIKEEKGSPLNAAPYGIESMSQDTEVRSRVVGGSLRGAQAASPAKGEPSLPEKDED
HALSYWKPFLVNMCVATVLTAGAYLCYRFLFNSNT

> <PDB ID(s) of Target Chain>
1BZJ,1G7G,1GFY,1JF7,1KAK,1KAV,1LQF,1NL9,1NNY,1NO6,1NZ7,1OEM,1OEO,1OES,1OET,1OEU,1OEV,1ONY,1ONZ,1PH0,1PXH,1PYN,1Q1M,1Q6J,1Q6M,1Q6N,1Q6P,1Q6S,1Q6T,1QXK,1SUG,1T48,1T49,1T4J,1WAX,1XBO,2AZR,2B07,2BGD,2BGE,
2CM2,2CM3,2CM7,2CM8,2CMA,2CMB,2CMC,2CNE,2CNF,2CNG,2CNH,2CNI,2F6T,2F6V,2F6W,2F6Y,2F6Z,2F70,2F71,2FJN,2H4G,2H4K,2HB1,2HNP,2HNQ,2QBP,2QBQ,2QBR,2QBS,2VEU,2VEV,2VEW,2VEX,2VEY,2ZMM,2ZN7,3A5J,3CWE,3D9C,3EAX,
3EB1,3EU0,3I7Z,3I80,3SME,4BJO,4I8N,4QBW,4Y14,5K9V,5K9W,5KA0,5KA1,5T19,6B90,6NTP,6W30,7KEY,7KLX,7LFO,7MN9,7MNA,8DU7,8G65,8G67,8G68,8G69,8G6A,8SKL

> <UniProt (SwissProt) Recommended Name of Target Chain>
Tyrosine-protein phosphatase non-receptor type 1

> <UniProt (SwissProt) Entry Name of Target Chain>
PTN1_HUMAN

> <UniProt (SwissProt) Primary ID of Target Chain>
P18031

> <UniProt (SwissProt) Secondary ID(s) of Target Chain>
Q5TGD8 Q9BQV9 Q9NQQ4

$$$$
Molecule
  SciTegic10242319433D

 57 61  0  0  0  0            999 V2000
    7.8581  -17.2857   -0.1052 C   0  0
    7.7195  -18.7280   -0.2725 C   0  0
    8.7804  -19.5218   -0.1436 C   0  0
   10.1127  -18.9576    0.1483 C   0  0
   10.2254  -17.6469    0.3074 C   0  0
    9.0582  -16.7992    0.1891 C   0  0
    6.6114  -16.3984   -0.3536 C   0  0
   11.3882  -19.8080    0.1590 C   0  0  2  0  0  0
    6.4002  -14.9476    0.3172 C   0  0  2  0  0  0
    5.0470  -14.3477   -0.0401 N   0  0
    7.5313  -13.9069    0.1006 C   0  0
    8.7602  -14.2166   -0.0476 N   0  0
    7.3634  -12.4728    0.1145 N   0  0
    8.6609  -11.9967   -0.0328 C   0  0
    9.5015  -13.0795   -0.1356 C   0  0
   10.8147  -12.9824   -0.2673 C   0  0
   11.3877  -11.6280   -0.3163 C   0  0
   10.5790  -10.5613   -0.2221 C   0  0
    9.1097  -10.7452   -0.0663 C   0  0
   11.3809  -21.4837    0.9331 S   0  0
   13.0724  -21.3865    0.4767 N   0  0
   13.6195  -20.1089    0.3689 C   0  0
   12.6532  -19.0318    0.5212 C   0  0
   11.7115  -22.8502    0.3648 O   0  0
   10.1449  -21.7744    0.1189 O   0  0
   14.8081  -19.9039    0.0918 O   0  0
    3.6168  -14.9942    0.8497 S   0  0
    2.0417  -15.7249    0.3894 C   0  0
    4.0328  -16.4029    0.5014 O   0  0
    2.9553  -13.9284   -0.0047 O   0  0
    0.9608  -14.9635    0.2091 C   0  0
   -0.3264  -15.5833   -0.1419 C   0  0
   -0.4174  -16.9052   -0.2768 C   0  0
    0.7637  -17.7434   -0.0784 C   0  0
    1.9309  -17.1854    0.2391 C   0  0
   -1.7285  -14.5995   -0.3699 Cl  0  0
    0.6438  -19.4592   -0.2530 Cl  0  0
    6.7446  -19.1571   -0.5037 H   0  0
    8.6640  -20.5998   -0.2549 H   0  0
   11.1979  -17.2068    0.5275 H   0  0
    9.1679  -15.7263    0.3469 H   0  0
    5.7544  -16.9966   -0.0440 H   0  0
    6.5718  -16.2363   -1.4308 H   0  0
   11.5372  -20.0316   -0.8973 H   0  0
    6.3672  -15.1243    1.3923 H   0  0
    4.8829  -14.5157   -1.0840 H   0  0
    6.4579  -11.9115    0.2142 H   0  0
   11.4455  -13.8687   -0.3366 H   0  0
   12.4633  -11.4918   -0.4285 H   0  0
   10.9994   -9.5564   -0.2598 H   0  0
    8.4337   -9.8941    0.0164 H   0  0
   13.6550  -22.2644    0.2903 H   0  0
   12.6221  -18.6495    1.5415 H   0  0
   12.8423  -18.2101   -0.1696 H   0  0
    1.0316  -13.8816    0.3219 H   0  0
   -1.3726  -17.3621   -0.5352 H   0  0
    2.8090  -17.8137    0.3883 H   0  0
 17 18  2  0
  9  7  1  0
 18 19  1  0
 19 14  2  0
  8 20  1  0
  4  5  2  0
  9 10  1  0
  2  3  2  0
  9 11  1  0
 20 21  1  0
 21 22  1  0
 22 23  1  0
  8 23  1  0
 11 12  2  0
 20 24  2  0
  5  6  1  0
 20 25  2  0
  6  1  2  0
 22 26  2  0
 12 15  1  0
 10 27  1  0
 14 13  1  0
 27 28  1  0
 13 11  1  0
 27 29  2  0
  1  2  1  0
 27 30  2  0
  1  7  1  0
 28 31  2  0
 14 15  1  0
 31 32  1  0
  3  4  1  0
 32 33  2  0
 15 16  2  0
 33 34  1  0
  4  8  1  0
 34 35  2  0
 35 28  1  0
 16 17  1  0
 32 36  1  0
 34 37  1  0
  2 38  1  0
  3 39  1  0
  5 40  1  0
  6 41  1  0
  7 42  1  0
  7 43  1  0
  8 44  1  0
  9 45  1  0
 10 46  1  0
 13 47  1  0
 16 48  1  0
 17 49  1  0
 18 50  1  0
 19 51  1  0
 21 52  1  0
 23 53  1  0
 23 54  1  0
 31 55  1  0
 33 56  1  0
 35 57  1  0
M  END
> <Name>
Molecule

> <Clean Energy>
233.642

> <From>
www.bindingDB.org

> <BindingDB Reactant_set_id>
50350967

> <Ligand InChI>
InChI=1S/C24H20Cl2N4O5S2/c25-16-10-17(26)12-18(11-16)36(32,33)29-21(24-27-19-3-1-2-4-20(19)28-24)9-14-5-7-15(8-6-14)22-13-23(31)30-37(22,34)35/h1-8,10-12,21-22,29H,9,13H2,(H,27,28)(H,30,31)

> <Ligand InChI Key>
NSQSQIVTSSJRCP-UHFFFAOYSA-N

> <BindingDB MonomerID>
50189688

> <BindingDB Ligand Name>
CHEMBL206950::N-{1-(1H-benzoimidazol-2-yl)-2-[4-(1,1,3-trioxo-1lambda*6*-isothiazolidin-5-yl)-phenyl]-ethyl}-3,5-dichloro-benzenesulfonamide

> <Target Name>
Tyrosine-protein phosphatase non-receptor type 1

> <Target Source Organism According to Curator or DataSource>
Homo sapiens

> <IC50 (nM)>
51

> <Curation/DataSource>
ChEMBL

> <Article DOI>
10.1021/jm0600904

> <BindingDB Entry DOI>
10.7270/Q2JQ10M8

> <PMID>
16789735

> <Authors>
Combs, AP; Zhu, W; Crawley, ML; Glass, B; Polam, P; Sparks, RB; Modi, D; Takvorian, A; McLaughlin, E; Yue, EW; Wasserman, Z; Bower, M; Wei, M; Rupar, M; Ala, PJ; Reid, BM; Ellis, D; Gonneville, L; Emm
, T; Taylor, N; Yeleswaram, S; Li, Y; Wynn, R; Burn, TC; Hollis, G; Liu, PC; Metcalf, B

> <Institution>
Incyte Corporation

> <Link to Ligand in BindingDB>
http://www.bindingdb.org/bind/chemsearch/marvin/MolStructure.jsp?monomerid=50189688

> <Link to Ligand-Target Pair in BindingDB>
http://www.bindingdb.org/jsp/dbsearch/PrimarySearch_ki.jsp?energyterm=kJ/mole&tag=pol&polymerid=2622&target=Tyrosine-protein+phosphatase+non-receptor+type+1&column=ki&startPg=0&Increment=50&submit=Sea
rch
http://www.bindingdb.org/jsp/dbsearch/PrimarySearch_ki.jsp?energyterm=kJ/mole&tag=r21&monomerid=50189688&enzyme=Tyrosine-protein+phosphatase+non-receptor+type+1&column=ki&startPg=0&Increment=50&submit
=Search

> <PubChem CID of Ligand>
44412937

> <PubChem SID of Ligand>
104073209

> <ChEMBL ID of Ligand>
CHEMBL206950

> <ZINC ID of Ligand>
ZINC36088422

> <Number of Protein Chains in Target (bigger than 1 implies a multichain complex)>
1

> <BindingDB Target Chain Sequence>
MEMEKEFEQIDKSGSWAAIYQDIRHEASDFPCRVAKLPKNKNRNRYRDVSPFDHSRIKLHQEDNDYINASLIKMEEAQRSYILTQGPLPNTCGHFWEMVWEQKSRGVVMLNRVMEKGSLKCAQYWPQKEEKEMIFEDTNLKLTLISEDIKSYYTVRQLELENLTTQETREILHFHYTTWPDFGVPESPASFLNFLFKVRE
SGSLSPEHGPVVVHCSAGIGRSGTFCLADTCLLLMDKRKDPSSVDIKKVLLEMRKFRMGLIQTADQLRFSYLAVIEGAKFIMGDSSVQDQWKELSHEDLEPPPEHIPPPPRPPKRILEPHNGKCREFFPNHQWVKEETQEDKDCPIKEEKGSPLNAAPYGIESMSQDTEVRSRVVGGSLRGAQAASPAKGEPSLPEKDED
HALSYWKPFLVNMCVATVLTAGAYLCYRFLFNSNT

> <PDB ID(s) of Target Chain>
1BZJ,1G7G,1GFY,1JF7,1KAK,1KAV,1LQF,1NL9,1NNY,1NO6,1NZ7,1OEM,1OEO,1OES,1OET,1OEU,1OEV,1ONY,1ONZ,1PH0,1PXH,1PYN,1Q1M,1Q6J,1Q6M,1Q6N,1Q6P,1Q6S,1Q6T,1QXK,1SUG,1T48,1T49,1T4J,1WAX,1XBO,2AZR,2B07,2BGD,2BGE,
2CM2,2CM3,2CM7,2CM8,2CMA,2CMB,2CMC,2CNE,2CNF,2CNG,2CNH,2CNI,2F6T,2F6V,2F6W,2F6Y,2F6Z,2F70,2F71,2FJN,2H4G,2H4K,2HB1,2HNP,2HNQ,2QBP,2QBQ,2QBR,2QBS,2VEU,2VEV,2VEW,2VEX,2VEY,2ZMM,2ZN7,3A5J,3CWE,3D9C,3EAX,
3EB1,3EU0,3I7Z,3I80,3SME,4BJO,4I8N,4QBW,4Y14,5K9V,5K9W,5KA0,5KA1,5T19,6B90,6NTP,6W30,7KEY,7KLX,7LFO,7MN9,7MNA,8DU7,8G65,8G67,8G68,8G69,8G6A,8SKL

> <UniProt (SwissProt) Recommended Name of Target Chain>
Tyrosine-protein phosphatase non-receptor type 1

> <UniProt (SwissProt) Entry Name of Target Chain>
PTN1_HUMAN

> <UniProt (SwissProt) Primary ID of Target Chain>
P18031

> <UniProt (SwissProt) Secondary ID(s) of Target Chain>
Q5TGD8 Q9BQV9 Q9NQQ4

$$$$
Molecule
  SciTegic10242319433D

 48 50  0  0  0  0            999 V2000
   15.0287  -26.2738    0.1367 C   0  0
   15.0252  -27.5919   -0.0598 C   0  0
   16.3115  -28.3094   -0.1200 C   0  0
   16.2954  -25.5472    0.2845 C   0  0
   17.4500  -26.2007    0.2214 C   0  0
   17.4667  -27.6465    0.0205 C   0  0
   18.7766  -28.4062   -0.0256 C   0  0
   19.9182  -27.6175    0.4223 O   0  0
   19.9028  -26.3170   -0.1621 C   0  0  1  0  0  0
   18.7383  -25.4606    0.3732 C   0  0
   21.2015  -25.6074    0.0967 C   0  0
   22.2504  -26.2539    0.1962 O   0  0
   21.2237  -24.2221    0.2271 O   0  0
   13.8055  -28.3421   -0.2156 N   0  0
   12.5597  -27.8529   -0.0314 C   0  0
   11.3672  -28.7602   -0.2582 C   0  0
   12.3599  -26.6856    0.3190 O   0  0
   10.0629  -28.0284    0.1537 C   0  0
    8.8198  -28.8946   -0.1820 C   0  0
    7.5414  -28.1647    0.2987 C   0  0
    4.9515  -28.2665    0.3598 C   0  0
    3.7710  -29.1670   -0.1955 C   0  0
    4.2109  -30.8848    0.2066 S   0  0
    6.1998  -30.5873    0.5549 S   0  0
    6.2706  -28.9347   -0.1384 C   0  0  2  0  0  0
   14.0845  -25.7316    0.1881 H   0  0
   16.3226  -29.3875   -0.2801 H   0  0
   16.2886  -24.4693    0.4464 H   0  0
   18.6899  -29.2836    0.6152 H   0  0
   18.9567  -28.7223   -1.0531 H   0  0
   19.7808  -26.4267   -1.2397 H   0  0
   18.6875  -24.5282   -0.1891 H   0  0
   18.9065  -25.2410    1.4275 H   0  0
   20.8658  -23.7811   -0.6561 H   0  0
   13.8932  -29.3699   -0.5001 H   0  0
   11.3131  -29.0293   -1.3130 H   0  0
   11.4804  -29.6629    0.3423 H   0  0
   10.0848  -27.8343    1.2261 H   0  0
    9.9970  -27.0836   -0.3858 H   0  0
    8.7658  -29.0516   -1.2593 H   0  0
    8.9003  -29.8576    0.3224 H   0  0
    7.5589  -28.0924    1.3862 H   0  0
    7.5184  -27.1637   -0.1321 H   0  0
    4.8699  -27.2519   -0.0302 H   0  0
    4.9280  -28.2405    1.4493 H   0  0
    2.8309  -28.8956    0.2847 H   0  0
    3.6774  -29.0437   -1.2745 H   0  0
    6.2491  -29.0017   -1.2262 H   0  0
  1  2  2  0
  2  3  1  0
  3  6  2  0
  5  4  2  0
  4  1  1  0
  5  6  1  0
  5 10  1  0
  6  7  1  0
  7  8  1  0
  9  8  1  0
  9 10  1  0
  9 11  1  0
 11 12  2  0
 11 13  1  0
  2 14  1  0
 14 15  1  0
 15 16  1  0
 15 17  2  0
 16 18  1  0
 18 19  1  0
 19 20  1  0
 21 22  1  0
 22 23  1  0
 23 24  1  0
 25 24  1  0
 25 21  1  0
 25 20  1  0
  1 26  1  0
  3 27  1  0
  4 28  1  0
  7 29  1  0
  7 30  1  0
  9 31  1  0
 10 32  1  0
 10 33  1  0
 13 34  1  0
 14 35  1  0
 16 36  1  0
 16 37  1  0
 18 38  1  0
 18 39  1  0
 19 40  1  0
 19 41  1  0
 20 42  1  0
 20 43  1  0
 21 44  1  0
 21 45  1  0
 22 46  1  0
 22 47  1  0
 25 48  1  0
M  END
> <Name>
Molecule

> <Clean Energy>
30.526

> <From>
www.bindingDB.org

> <BindingDB Reactant_set_id>
50513463

> <Ligand InChI>
InChI=1S/C18H23NO4S2/c20-17(4-2-1-3-15-7-8-24-25-15)19-14-6-5-12-10-16(18(21)22)23-11-13(12)9-14/h5-6,9,15-16H,1-4,7-8,10-11H2,(H,19,20)(H,21,22)/t15-,16+/m1/s1

> <Ligand InChI Key>
KRQHPRIBLJFGIT-CVEARBPZSA-N

> <BindingDB MonomerID>
50296382

> <BindingDB Ligand Name>
(3S)-7-{4-[(3R)-1,2-Dithiolan-3-yl]butylcarboxamido}-isochroman-3-carboxylic acid::CHEMBL564124

> <Target Name>
Tyrosine-protein phosphatase non-receptor type 1

> <Target Source Organism According to Curator or DataSource>
Homo sapiens

> <IC50 (nM)>
51.63

> <Curation/DataSource>
ChEMBL

> <Article DOI>
10.1016/j.ejmech.2009.03.009

> <BindingDB Entry DOI>
10.7270/Q2FJ2GTG

> <PMID>
19349096

> <Authors>
Lakshminarayana, N; Rajendra Prasad, Y; Gharat, L; Thomas, A; Ravikumar, P; Narayanan, S; Srinivasan, CV; Gopalan, B

> <Institution>
Glenmark Research Center

> <Link to Ligand in BindingDB>
http://www.bindingdb.org/bind/chemsearch/marvin/MolStructure.jsp?monomerid=50296382

> <Link to Ligand-Target Pair in BindingDB>
http://www.bindingdb.org/jsp/dbsearch/PrimarySearch_ki.jsp?energyterm=kJ/mole&tag=pol&polymerid=2622&target=Tyrosine-protein+phosphatase+non-receptor+type+1&column=ki&startPg=0&Increment=50&submit=Sea
rch
http://www.bindingdb.org/jsp/dbsearch/PrimarySearch_ki.jsp?energyterm=kJ/mole&tag=r21&monomerid=50296382&enzyme=Tyrosine-protein+phosphatase+non-receptor+type+1&column=ki&startPg=0&Increment=50&submit
=Search

> <PubChem CID of Ligand>
44139929

> <PubChem SID of Ligand>
104137913

> <ChEMBL ID of Ligand>
CHEMBL564124

> <KEGG ID of Ligand>
C02051

> <Number of Protein Chains in Target (bigger than 1 implies a multichain complex)>
1

> <BindingDB Target Chain Sequence>
MEMEKEFEQIDKSGSWAAIYQDIRHEASDFPCRVAKLPKNKNRNRYRDVSPFDHSRIKLHQEDNDYINASLIKMEEAQRSYILTQGPLPNTCGHFWEMVWEQKSRGVVMLNRVMEKGSLKCAQYWPQKEEKEMIFEDTNLKLTLISEDIKSYYTVRQLELENLTTQETREILHFHYTTWPDFGVPESPASFLNFLFKVRE
SGSLSPEHGPVVVHCSAGIGRSGTFCLADTCLLLMDKRKDPSSVDIKKVLLEMRKFRMGLIQTADQLRFSYLAVIEGAKFIMGDSSVQDQWKELSHEDLEPPPEHIPPPPRPPKRILEPHNGKCREFFPNHQWVKEETQEDKDCPIKEEKGSPLNAAPYGIESMSQDTEVRSRVVGGSLRGAQAASPAKGEPSLPEKDED
HALSYWKPFLVNMCVATVLTAGAYLCYRFLFNSNT

> <PDB ID(s) of Target Chain>
1BZJ,1G7G,1GFY,1JF7,1KAK,1KAV,1LQF,1NL9,1NNY,1NO6,1NZ7,1OEM,1OEO,1OES,1OET,1OEU,1OEV,1ONY,1ONZ,1PH0,1PXH,1PYN,1Q1M,1Q6J,1Q6M,1Q6N,1Q6P,1Q6S,1Q6T,1QXK,1SUG,1T48,1T49,1T4J,1WAX,1XBO,2AZR,2B07,2BGD,2BGE,
2CM2,2CM3,2CM7,2CM8,2CMA,2CMB,2CMC,2CNE,2CNF,2CNG,2CNH,2CNI,2F6T,2F6V,2F6W,2F6Y,2F6Z,2F70,2F71,2FJN,2H4G,2H4K,2HB1,2HNP,2HNQ,2QBP,2QBQ,2QBR,2QBS,2VEU,2VEV,2VEW,2VEX,2VEY,2ZMM,2ZN7,3A5J,3CWE,3D9C,3EAX,
3EB1,3EU0,3I7Z,3I80,3SME,4BJO,4I8N,4QBW,4Y14,5K9V,5K9W,5KA0,5KA1,5T19,6B90,6NTP,6W30,7KEY,7KLX,7LFO,7MN9,7MNA,8DU7,8G65,8G67,8G68,8G69,8G6A,8SKL

> <UniProt (SwissProt) Recommended Name of Target Chain>
Tyrosine-protein phosphatase non-receptor type 1

> <UniProt (SwissProt) Entry Name of Target Chain>
PTN1_HUMAN

> <UniProt (SwissProt) Primary ID of Target Chain>
P18031

> <UniProt (SwissProt) Secondary ID(s) of Target Chain>
Q5TGD8 Q9BQV9 Q9NQQ4

$$$$
Molecule
  SciTegic10242319433D

 72 77  0  0  0  0            999 V2000
    0.7743   -6.6387   -0.0002 C   0  0
    1.2697   -5.3617   -0.0002 C   0  0
   -0.9363   -6.5965    0.0001 S   0  0
    0.1133   -4.3446    0.0002 C   0  0
   -1.1723   -4.9759    0.0007 C   0  0
    8.9046   -2.1163    0.0008 C   0  0
    7.5770   -2.3895    0.0011 C   0  0
    7.0849   -3.8245   -0.0010 C   0  0
    2.7718   -4.9643    0.0000 C   0  0
    1.5664   -7.9281    0.0000 C   0  0
    9.8860   -3.2047    0.0047 C   0  0
    9.4229   -0.6954    0.0012 C   0  0
   11.7995   -5.3354    0.0032 C   0  0
    5.5667   -4.1967   -0.0004 C   0  0
   11.2750   -2.8650   -0.0018 O   0  0
    8.0038   -4.7938    0.0028 C   0  0
   11.0445   -6.0512    0.0271 O   0  0
    8.9776   -3.9963   -0.0322 C   0  0
    3.1410   -3.6720    0.0001 C   0  0
    3.8482   -5.9805   -0.0011 C   0  0
    5.1438   -5.6274   -0.0010 C   0  0
    4.6012   -3.2682    0.0001 C   0  0
   10.7406   -0.4548    0.0005 C   0  0
    8.5009    0.4433    0.0015 C   0  0
   12.2796   -3.9142   -0.0115 C   0  0
   10.4138    1.9598    0.0010 C   0  0
   12.6846   -6.3796    0.0028 O   0  0
    0.6287   -9.1505   -0.0003 C   0  0
    8.9696    1.6942    0.0017 C   0  0
   11.2643    0.9327    0.0003 C   0  0
    0.2094   -3.0169    0.0008 C   0  0
   10.8715    3.2996    0.0011 O   0  0
   -2.3204   -4.3130    0.0006 C   0  0
   12.3052    3.3835   -0.0001 C   0  0
   -0.6967   -9.0171    0.0007 C   0  0
    1.1964  -10.5081   -0.0007 C   0  0
   -1.0534   -2.2305    0.0006 C   0  0
   -2.2468   -2.8433    0.0010 C   0  0
   12.7264    4.8741    0.0004 C   0  0
   -1.5782  -10.1854    0.0012 C   0  0
    0.3984  -11.5769   -0.0006 C   0  0
   -1.0541  -11.4102    0.0008 C   0  0
    6.8568   -1.5713    0.0028 H   0  0
    2.1949   -7.9606   -0.8899 H   0  0
    2.1943   -7.9606    0.8904 H   0  0
    7.9354   -5.8814    0.0272 H   0  0
    9.3048   -4.3815   -0.9979 H   0  0
    2.3736   -2.8980    0.0003 H   0  0
    3.5835   -7.0379   -0.0022 H   0  0
    5.9063   -6.4063   -0.0012 H   0  0
    4.8687   -2.2116    0.0006 H   0  0
   11.4389   -1.2918   -0.0001 H   0  0
    7.4250    0.2686    0.0016 H   0  0
   12.9071   -3.7728    0.8684 H   0  0
   12.8801   -3.7822   -0.9116 H   0  0
   13.2808   -6.3333   -0.8603 H   0  0
    8.2699    2.5299    0.0025 H   0  0
   12.3394    1.1121   -0.0003 H   0  0
    1.1809   -2.5225    0.0013 H   0  0
   -3.2777   -4.8342    0.0003 H   0  0
   12.7000    2.8927    0.8894 H   0  0
   12.6985    2.8937   -0.8908 H   0  0
   -1.1332   -8.0183    0.0013 H   0  0
    2.2782  -10.6414   -0.0010 H   0  0
   -1.0084   -1.1414    0.0002 H   0  0
   -3.1626   -2.2521    0.0015 H   0  0
   13.8141    4.9449   -0.0005 H   0  0
   12.3318    5.3634    0.8910 H   0  0
   12.3302    5.3645   -0.8888 H   0  0
   -2.6603  -10.0539    0.0018 H   0  0
    0.8306  -12.5776   -0.0016 H   0  0
   -1.7053  -12.2843    0.0015 H   0  0
  2  1  2  0
  3  1  1  0
  4  2  1  0
  5  3  1  0
  6  7  2  0
  7  8  1  0
  8 14  1  0
  9  2  1  0
 10  1  1  0
 11 18  2  0
 12  6  1  0
 13 25  1  0
 14 21  1  0
 15 11  1  0
 16  8  2  0
 17 13  2  0
 18 16  1  0
 19  9  2  0
 20  9  1  0
 21 20  2  0
 22 19  1  0
 23 12  2  0
 24 12  1  0
 25 15  1  0
 26 29  1  0
 27 13  1  0
 28 10  1  0
 29 24  2  0
 30 23  1  0
 31  4  2  0
 32 26  1  0
 33  5  2  0
 34 32  1  0
 35 28  2  0
 36 28  1  0
 37 31  1  0
 38 33  1  0
 39 34  1  0
 40 35  1  0
 41 36  2  0
 42 41  1  0
  4  5  1  0
 37 38  2  0
 22 14  2  0
 40 42  2  0
  6 11  1  0
 30 26  2  0
  7 43  1  0
 10 44  1  0
 10 45  1  0
 16 46  1  0
 18 47  1  0
 19 48  1  0
 20 49  1  0
 21 50  1  0
 22 51  1  0
 23 52  1  0
 24 53  1  0
 25 54  1  0
 25 55  1  0
 27 56  1  0
 29 57  1  0
 30 58  1  0
 31 59  1  0
 33 60  1  0
 34 61  1  0
 34 62  1  0
 35 63  1  0
 36 64  1  0
 37 65  1  0
 38 66  1  0
 39 67  1  0
 39 68  1  0
 39 69  1  0
 40 70  1  0
 41 71  1  0
 42 72  1  0
M  END
> <Name>
Molecule

> <Clean Energy>
364.06

> <From>
www.bindingDB.org

> <BindingDB Reactant_set_id>
50154657

> <Ligand InChI>
InChI=1S/C37H30O4S/c1-2-40-30-19-16-27(17-20-30)32-23-29(18-21-33(32)41-24-36(38)39)26-12-14-28(15-13-26)37-31-10-6-7-11-34(31)42-35(37)22-25-8-4-3-5-9-25/h3-21,23H,2,22,24H2,1H3,(H,38,39)

> <Ligand InChI Key>
IECOACXLYKLKOY-UHFFFAOYSA-N

> <BindingDB MonomerID>
50086967

> <BindingDB Ligand Name>
CHEMBL284765::[4-(2-Benzyl-benzo[b]thiophen-3-yl)-4''-ethoxy-[1,1':3',1'']terphenyl-4'-yloxy]-acetic acid::[4-(2-Benzyl-benzo[b]thiophen-3-yl)-4''-ethoxy-[1,1';3',1'']terphenyl-4'-yloxy]-acetic acid

> <Target Name>
Tyrosine-protein phosphatase non-receptor type 1

> <Target Source Organism According to Curator or DataSource>
Homo sapiens

> <IC50 (nM)>
52

> <Curation/DataSource>
ChEMBL

> <Article DOI>
10.1021/jm990560c

> <BindingDB Entry DOI>
10.7270/Q2W958FT

> <PMID>
10753467

> <Authors>
Malamas, MS; Sredy, J; Moxham, C; Katz, A; Xu, W; McDevitt, R; Adebayo, FO; Sawicki, DR; Seestaller, L; Sullivan, D; Taylor, JR

> <Institution>
Wyeth-Ayerst Research

> <Link to Ligand in BindingDB>
http://www.bindingdb.org/bind/chemsearch/marvin/MolStructure.jsp?monomerid=50086967

> <Link to Ligand-Target Pair in BindingDB>
http://www.bindingdb.org/jsp/dbsearch/PrimarySearch_ki.jsp?energyterm=kJ/mole&tag=pol&polymerid=2622&target=Tyrosine-protein+phosphatase+non-receptor+type+1&column=ki&startPg=0&Increment=50&submit=Sea
rch
http://www.bindingdb.org/jsp/dbsearch/PrimarySearch_ki.jsp?energyterm=kJ/mole&tag=r21&monomerid=50086967&enzyme=Tyrosine-protein+phosphatase+non-receptor+type+1&column=ki&startPg=0&Increment=50&submit
=Search

> <PubChem CID of Ligand>
10555076

> <PubChem SID of Ligand>
103986078

> <ChEMBL ID of Ligand>
CHEMBL284765

> <ZINC ID of Ligand>
ZINC28758329

> <Number of Protein Chains in Target (bigger than 1 implies a multichain complex)>
1

> <BindingDB Target Chain Sequence>
MEMEKEFEQIDKSGSWAAIYQDIRHEASDFPCRVAKLPKNKNRNRYRDVSPFDHSRIKLHQEDNDYINASLIKMEEAQRSYILTQGPLPNTCGHFWEMVWEQKSRGVVMLNRVMEKGSLKCAQYWPQKEEKEMIFEDTNLKLTLISEDIKSYYTVRQLELENLTTQETREILHFHYTTWPDFGVPESPASFLNFLFKVRE
SGSLSPEHGPVVVHCSAGIGRSGTFCLADTCLLLMDKRKDPSSVDIKKVLLEMRKFRMGLIQTADQLRFSYLAVIEGAKFIMGDSSVQDQWKELSHEDLEPPPEHIPPPPRPPKRILEPHNGKCREFFPNHQWVKEETQEDKDCPIKEEKGSPLNAAPYGIESMSQDTEVRSRVVGGSLRGAQAASPAKGEPSLPEKDED
HALSYWKPFLVNMCVATVLTAGAYLCYRFLFNSNT

> <PDB ID(s) of Target Chain>
1BZJ,1G7G,1GFY,1JF7,1KAK,1KAV,1LQF,1NL9,1NNY,1NO6,1NZ7,1OEM,1OEO,1OES,1OET,1OEU,1OEV,1ONY,1ONZ,1PH0,1PXH,1PYN,1Q1M,1Q6J,1Q6M,1Q6N,1Q6P,1Q6S,1Q6T,1QXK,1SUG,1T48,1T49,1T4J,1WAX,1XBO,2AZR,2B07,2BGD,2BGE,
2CM2,2CM3,2CM7,2CM8,2CMA,2CMB,2CMC,2CNE,2CNF,2CNG,2CNH,2CNI,2F6T,2F6V,2F6W,2F6Y,2F6Z,2F70,2F71,2FJN,2H4G,2H4K,2HB1,2HNP,2HNQ,2QBP,2QBQ,2QBR,2QBS,2VEU,2VEV,2VEW,2VEX,2VEY,2ZMM,2ZN7,3A5J,3CWE,3D9C,3EAX,
3EB1,3EU0,3I7Z,3I80,3SME,4BJO,4I8N,4QBW,4Y14,5K9V,5K9W,5KA0,5KA1,5T19,6B90,6NTP,6W30,7KEY,7KLX,7LFO,7MN9,7MNA,8DU7,8G65,8G67,8G68,8G69,8G6A,8SKL

> <UniProt (SwissProt) Recommended Name of Target Chain>
Tyrosine-protein phosphatase non-receptor type 1

> <UniProt (SwissProt) Entry Name of Target Chain>
PTN1_HUMAN

> <UniProt (SwissProt) Primary ID of Target Chain>
P18031

> <UniProt (SwissProt) Secondary ID(s) of Target Chain>
Q5TGD8 Q9BQV9 Q9NQQ4

$$$$
Molecule
  SciTegic10242319433D

 78 84  0  0  0  0            999 V2000
   -0.6618   -5.7709    0.0022 C   0  0
   -0.1010   -4.5109    0.0170 C   0  0
   -2.3631   -5.6256   -0.0377 S   0  0
   -1.2362   -3.4267   -0.0083 C   0  0
    7.5468   -1.5929    0.1039 C   0  0
   -2.5308   -4.0111   -0.0341 C   0  0
    8.4755   -2.7970    0.2140 C   0  0
    6.2175   -1.7872    0.1092 C   0  0
    9.9219   -2.6352    0.1283 O   0  0
   10.8692   -3.8170    0.1756 C   0  0  1  0  0  0
   10.6611   -4.8789   -0.9707 C   0  0
    5.6635   -3.1549    0.2260 C   0  0
    1.4399   -4.1428    0.0615 C   0  0
    0.0735   -7.1479    0.0159 C   0  0
    8.0630   -0.1806    0.0145 C   0  0
    4.2082   -3.4472    0.1790 C   0  0
   12.3371   -3.2167    0.1046 C   0  0
    7.9250   -3.9989    0.3623 C   0  0
    9.5385   -5.1597   -1.3957 O   0  0
    6.4896   -4.1844    0.3627 C   0  0
    1.8474   -2.8655    0.0109 C   0  0
    2.4924   -5.1694    0.1776 C   0  0
    3.7813   -4.8417    0.2365 C   0  0
    3.2871   -2.4933    0.0638 C   0  0
    9.3688    0.0917    0.0429 C   0  0
    7.1046    0.9353   -0.0768 C   0  0
   11.7353   -5.5685   -1.5137 O   0  0
    8.9745    2.4823   -0.0955 C   0  0
   -0.7737   -8.4513    0.0082 C   0  0
   13.5403   -4.1698    0.2450 C   0  0
    7.5382    2.1963   -0.1281 C   0  0
    9.8463    1.4793   -0.0170 C   0  0
    9.5382    4.1182   -0.1559 Cl  0  0
   -1.1180   -2.1009    0.0001 C   0  0
   -3.6605   -3.3167   -0.0496 C   0  0
   -0.1337   -9.6217    0.0058 C   0  0
   13.4353   -5.3894    0.7796 C   0  0
   14.8529   -3.7075   -0.2375 C   0  0
   -2.2458   -8.4592    0.0058 C   0  0
   -2.3480   -1.2758   -0.0192 C   0  0
   -3.5547   -1.8550   -0.0415 C   0  0
   14.6202   -6.2587    0.8696 C   0  0
   15.9229   -4.4969   -0.1560 C   0  0
   -2.9277   -9.6030    0.0009 C   0  0
   -0.8850  -10.8863    0.0002 C   0  0
   15.8011   -5.8340    0.4212 C   0  0
   -2.2162  -10.8753   -0.0020 C   0  0
    5.5440   -0.9341    0.0273 H   0  0
   10.7477   -4.3180    1.1360 H   0  0
    0.7139   -7.1774   -0.8656 H   0  0
    0.6900   -7.1724    0.9145 H   0  0
   12.4332   -2.7209   -0.8613 H   0  0
   12.4194   -2.4785    0.9023 H   0  0
    8.5722   -4.8671    0.4869 H   0  0
    6.0798   -5.1879    0.4773 H   0  0
    1.1006   -2.0758   -0.0714 H   0  0
    2.2082   -6.2210    0.2162 H   0  0
    4.5305   -5.6280    0.3291 H   0  0
    3.5855   -1.4464    0.0085 H   0  0
   10.0886   -0.7240    0.1114 H   0  0
    6.0346    0.7292   -0.1025 H   0  0
   12.4127   -4.8862   -1.9357 H   0  0
    6.8220    3.0154   -0.1943 H   0  0
   10.9159    1.6881    0.0029 H   0  0
   -0.1345   -1.6313    0.0209 H   0  0
   -4.6303   -3.8139   -0.0676 H   0  0
    0.9561   -9.6411    0.0081 H   0  0
   12.4722   -5.7412    1.1492 H   0  0
   14.9497   -2.7097   -0.6654 H   0  0
   -2.7868   -7.5129    0.0080 H   0  0
   -2.2699   -0.1886   -0.0153 H   0  0
   -4.4555   -1.2415   -0.0536 H   0  0
   14.5312   -7.2540    1.3050 H   0  0
   16.8886   -4.1457   -0.5196 H   0  0
   -4.0176   -9.5879   -0.0009 H   0  0
   -0.3498  -11.8359   -0.0022 H   0  0
   16.6747   -6.4827    0.4848 H   0  0
   -2.7715  -11.8132   -0.0061 H   0  0
  2  1  2  0
  3  1  1  0
  4  2  1  0
  5  8  2  0
  6  3  1  0
  7 18  2  0
  8 12  1  0
  9  7  1  0
  9 10  1  0
 11 10  1  0
 12 16  1  0
 13  2  1  0
 14  1  1  0
 15  5  1  0
 16 23  1  0
 17 10  1  0
 18 20  1  0
 19 11  2  0
 20 12  2  0
 21 13  2  0
 22 13  1  0
 23 22  2  0
 24 21  1  0
 25 15  2  0
 26 15  1  0
 27 11  1  0
 28 31  1  0
 29 14  1  0
 30 17  1  0
 31 26  2  0
 32 25  1  0
 33 28  1  0
 34  4  2  0
 35  6  2  0
 36 29  2  0
 37 30  2  0
 38 30  1  0
 39 29  1  0
 40 34  1  0
 41 35  1  0
 42 37  1  0
 43 38  2  0
 44 39  2  0
 45 36  1  0
 46 43  1  0
 47 44  1  0
  4  6  1  0
 40 41  2  0
 24 16  2  0
 45 47  2  0
  7  5  1  0
 32 28  2  0
 42 46  2  0
  8 48  1  0
 10 49  1  0
 14 50  1  0
 14 51  1  0
 17 52  1  0
 17 53  1  0
 18 54  1  0
 20 55  1  0
 21 56  1  0
 22 57  1  0
 23 58  1  0
 24 59  1  0
 25 60  1  0
 26 61  1  0
 27 62  1  0
 31 63  1  0
 32 64  1  0
 34 65  1  0
 35 66  1  0
 36 67  1  0
 37 68  1  0
 38 69  1  0
 39 70  1  0
 40 71  1  0
 41 72  1  0
 42 73  1  0
 43 74  1  0
 44 75  1  0
 45 76  1  0
 46 77  1  0
 47 78  1  0
M  END
> <Name>
Molecule

> <Clean Energy>
47.8166

> <From>
www.bindingDB.org

> <BindingDB Reactant_set_id>
50154586

> <Ligand InChI>
InChI=1S/C42H31ClO3S/c43-34-22-19-31(20-23-34)36-27-33(21-24-37(36)46-38(42(44)45)25-28-9-3-1-4-10-28)30-15-17-32(18-16-30)41-35-13-7-8-14-39(35)47-40(41)26-29-11-5-2-6-12-29/h1-24,27,38H,25-26H2,(H,4
4,45)

> <Ligand InChI Key>
ASAPNNLBIMTRGL-UHFFFAOYSA-N

> <BindingDB MonomerID>
50086903

> <BindingDB Ligand Name>
2-[4-(2-Benzyl-benzo[b]thiophen-3-yl)-4''-chloro-[1,1';3',1'']terphenyl-4'-yloxy]-3-phenyl-propionic acid::CHEMBL283797

> <Target Name>
Tyrosine-protein phosphatase non-receptor type 1

> <Target Source Organism According to Curator or DataSource>
Homo sapiens

> <IC50 (nM)>
52

> <Curation/DataSource>
ChEMBL

> <Article DOI>
10.1021/jm990560c

> <BindingDB Entry DOI>
10.7270/Q2W958FT

> <PMID>
10753467

> <Authors>
Malamas, MS; Sredy, J; Moxham, C; Katz, A; Xu, W; McDevitt, R; Adebayo, FO; Sawicki, DR; Seestaller, L; Sullivan, D; Taylor, JR

> <Institution>
Wyeth-Ayerst Research

> <Link to Ligand in BindingDB>
http://www.bindingdb.org/bind/chemsearch/marvin/MolStructure.jsp?monomerid=50086903

> <Link to Ligand-Target Pair in BindingDB>
http://www.bindingdb.org/jsp/dbsearch/PrimarySearch_ki.jsp?energyterm=kJ/mole&tag=pol&polymerid=2622&target=Tyrosine-protein+phosphatase+non-receptor+type+1&column=ki&startPg=0&Increment=50&submit=Sea
rch
http://www.bindingdb.org/jsp/dbsearch/PrimarySearch_ki.jsp?energyterm=kJ/mole&tag=r21&monomerid=50086903&enzyme=Tyrosine-protein+phosphatase+non-receptor+type+1&column=ki&startPg=0&Increment=50&submit
=Search

> <PubChem CID of Ligand>
22462610

> <PubChem SID of Ligand>
103986014

> <ChEMBL ID of Ligand>
CHEMBL283797

> <ZINC ID of Ligand>
ZINC28759031

> <Number of Protein Chains in Target (bigger than 1 implies a multichain complex)>
1

> <BindingDB Target Chain Sequence>
MEMEKEFEQIDKSGSWAAIYQDIRHEASDFPCRVAKLPKNKNRNRYRDVSPFDHSRIKLHQEDNDYINASLIKMEEAQRSYILTQGPLPNTCGHFWEMVWEQKSRGVVMLNRVMEKGSLKCAQYWPQKEEKEMIFEDTNLKLTLISEDIKSYYTVRQLELENLTTQETREILHFHYTTWPDFGVPESPASFLNFLFKVRE
SGSLSPEHGPVVVHCSAGIGRSGTFCLADTCLLLMDKRKDPSSVDIKKVLLEMRKFRMGLIQTADQLRFSYLAVIEGAKFIMGDSSVQDQWKELSHEDLEPPPEHIPPPPRPPKRILEPHNGKCREFFPNHQWVKEETQEDKDCPIKEEKGSPLNAAPYGIESMSQDTEVRSRVVGGSLRGAQAASPAKGEPSLPEKDED
HALSYWKPFLVNMCVATVLTAGAYLCYRFLFNSNT

> <PDB ID(s) of Target Chain>
1BZJ,1G7G,1GFY,1JF7,1KAK,1KAV,1LQF,1NL9,1NNY,1NO6,1NZ7,1OEM,1OEO,1OES,1OET,1OEU,1OEV,1ONY,1ONZ,1PH0,1PXH,1PYN,1Q1M,1Q6J,1Q6M,1Q6N,1Q6P,1Q6S,1Q6T,1QXK,1SUG,1T48,1T49,1T4J,1WAX,1XBO,2AZR,2B07,2BGD,2BGE,
2CM2,2CM3,2CM7,2CM8,2CMA,2CMB,2CMC,2CNE,2CNF,2CNG,2CNH,2CNI,2F6T,2F6V,2F6W,2F6Y,2F6Z,2F70,2F71,2FJN,2H4G,2H4K,2HB1,2HNP,2HNQ,2QBP,2QBQ,2QBR,2QBS,2VEU,2VEV,2VEW,2VEX,2VEY,2ZMM,2ZN7,3A5J,3CWE,3D9C,3EAX,
3EB1,3EU0,3I7Z,3I80,3SME,4BJO,4I8N,4QBW,4Y14,5K9V,5K9W,5KA0,5KA1,5T19,6B90,6NTP,6W30,7KEY,7KLX,7LFO,7MN9,7MNA,8DU7,8G65,8G67,8G68,8G69,8G6A,8SKL

> <UniProt (SwissProt) Recommended Name of Target Chain>
Tyrosine-protein phosphatase non-receptor type 1

> <UniProt (SwissProt) Entry Name of Target Chain>
PTN1_HUMAN

> <UniProt (SwissProt) Primary ID of Target Chain>
P18031

> <UniProt (SwissProt) Secondary ID(s) of Target Chain>
Q5TGD8 Q9BQV9 Q9NQQ4

$$$$
Molecule
  SciTegic10242319433D

 73 77  0  0  0  0            999 V2000
   -6.8831   -8.5152   -0.1670 C   0  0
   -6.8539   -9.9586    0.0815 C   0  0
   -5.6869  -10.5607    0.2193 C   0  0
   -4.4235   -9.8666    0.1163 C   0  0
   -4.3988   -8.5570   -0.1269 C   0  0
   -5.7251   -7.8385   -0.2505 C   0  0
   -3.0676  -11.0351    0.1356 S   0  0
   -1.4070  -10.8461    0.6885 N   0  0
   -3.0130  -11.5417   -1.2847 O   0  0
   -3.6079  -12.1430    1.0150 O   0  0
   -0.3255  -10.2775   -0.1629 C   0  0  3  0  0  0
    0.9460  -10.7870    0.6790 C   0  0
    2.3721  -10.3363    0.3691 C   0  0
   -0.4778   -8.7980   -0.2474 C   0  0
    3.4118  -11.1057    0.7169 C   0  0
    4.7946  -10.6064    0.5169 C   0  0
    4.9759   -9.3738    0.0348 C   0  0
    3.8475   -8.5670   -0.3146 C   0  0
    2.6226   -9.0286   -0.1653 C   0  0
    6.3261   -8.7998   -0.2124 C   0  0  2  0  0  0
    7.5135   -9.2726    0.6211 C   0  0
    8.6014   -8.3283    0.0408 C   0  0
    8.1192   -7.0982   -0.5184 N   0  0
    6.4646   -7.0322   -0.2893 S   0  0
    9.7998   -8.6253    0.0412 O   0  0
    5.6696   -6.4239   -1.4299 O   0  0
    6.1566   -6.3613    1.0374 O   0  0
    0.1453   -8.0529   -1.0734 N   0  0
   -1.3161   -8.0628    0.5570 N   0  0
   -1.1378   -6.7633    0.1468 C   0  0
   -0.2533   -6.7323   -0.8481 C   0  0
   -8.0923  -10.8275    0.1618 C   0  0
   -8.3796  -11.0636    1.4898 F   0  0
   -7.8134  -12.0642   -0.4024 F   0  0
   -9.1753  -10.2279   -0.4399 F   0  0
   -1.8739   -5.5722    0.7424 C   0  0
   -1.3193   -4.1911    0.2719 C   0  0
    0.1088   -3.9485    0.8385 C   0  0
    0.6563   -2.6086    0.4176 C   0  0
    1.9488   -2.3466    0.6057 C   0  0
    2.5054   -1.0531    0.2049 C   0  0
    1.7173   -0.1311   -0.3449 C   0  0
    0.2926   -0.4135   -0.5509 C   0  0
   -0.2138   -1.5934   -0.1912 C   0  0
   -7.8342   -7.9954   -0.2830 H   0  0
   -5.6759  -11.6320    0.4202 H   0  0
   -3.4556   -8.0212   -0.2333 H   0  0
   -5.7412   -6.7602   -0.4089 H   0  0
   -1.4553  -10.2233    1.5573 H   0  0
   -0.3378  -10.7260   -1.1563 H   0  0
    0.7571  -10.5017    1.7139 H   0  0
    0.9477  -11.8738    0.5957 H   0  0
    3.2429  -12.0939    1.1448 H   0  0
    5.6503  -11.2363    0.7599 H   0  0
    4.0024   -7.5622   -0.7076 H   0  0
    1.7792   -8.4018   -0.4547 H   0  0
    6.5688   -9.1262   -1.2236 H   0  0
    7.7459  -10.3227    0.4439 H   0  0
    7.3562   -9.1096    1.6873 H   0  0
    8.7160   -6.3516   -0.9994 H   0  0
   -1.9629   -8.4222    1.3299 H   0  0
    0.0930   -5.8481   -1.3832 H   0  0
   -2.9232   -5.6374    0.4544 H   0  0
   -1.7906   -5.6243    1.8279 H   0  0
   -1.2792   -4.1743   -0.8173 H   0  0
   -1.9825   -3.4009    0.6238 H   0  0
    0.0678   -3.9868    1.9270 H   0  0
    0.7719   -4.7318    0.4715 H   0  0
    2.5945   -3.0983    1.0597 H   0  0
    3.5645   -0.8448    0.3564 H   0  0
    2.1306    0.8328   -0.6417 H   0  0
   -0.3528    0.3421   -0.9986 H   0  0
   -1.2715   -1.8044   -0.3485 H   0  0
 11  8  1  0
  5  6  1  0
 21 22  1  0
 22 23  1  0
 23 24  1  0
 24 20  1  0
 20 17  1  0
 11 12  1  0
 22 25  2  0
  6  1  2  0
 24 26  2  0
 12 13  1  0
 24 27  2  0
 14 28  2  0
  1  2  1  0
 11 14  1  0
 28 31  1  0
 30 29  1  0
 29 14  1  0
  4  7  1  0
 13 15  2  0
 30 31  2  0
  3  4  1  0
  2 32  1  0
 15 16  1  0
 32 33  1  0
  7  8  1  0
 32 34  1  0
 16 17  2  0
 32 35  1  0
 30 36  1  0
 17 18  1  0
 36 37  1  0
  7  9  2  0
 37 38  1  0
 18 19  2  0
 38 39  1  0
 19 13  1  0
 39 40  2  0
 20 21  1  0
 40 41  1  0
  4  5  2  0
 41 42  2  0
  7 10  2  0
 42 43  1  0
  2  3  2  0
 43 44  2  0
 44 39  1  0
  1 45  1  0
  3 46  1  0
  5 47  1  0
  6 48  1  0
  8 49  1  0
 11 50  1  0
 12 51  1  0
 12 52  1  0
 15 53  1  0
 16 54  1  0
 18 55  1  0
 19 56  1  0
 20 57  1  0
 21 58  1  0
 21 59  1  0
 23 60  1  0
 29 61  1  0
 31 62  1  0
 36 63  1  0
 36 64  1  0
 37 65  1  0
 37 66  1  0
 38 67  1  0
 38 68  1  0
 40 69  1  0
 41 70  1  0
 42 71  1  0
 43 72  1  0
 44 73  1  0
M  END
> <Name>
Molecule

> <Clean Energy>
105.463

> <From>
www.bindingDB.org

> <BindingDB Reactant_set_id>
50406926

> <Ligand InChI>
InChI=1S/C30H29F3N4O5S2/c31-30(32,33)23-9-5-11-25(17-23)43(39,40)36-26(29-34-19-24(35-29)10-4-8-20-6-2-1-3-7-20)16-21-12-14-22(15-13-21)27-18-28(38)37-44(27,41)42/h1-3,5-7,9,11-15,17,19,26-27,36H,4,8,
10,16,18H2,(H,34,35)(H,37,38)

> <Ligand InChI Key>
YFHWQULUZNBZKU-UHFFFAOYSA-N

> <BindingDB MonomerID>
50228036

> <BindingDB Ligand Name>
CHEMBL253269::N-{1-[5-(3-phenyl-propyl)-1H-imidazol-2-yl]-2-[4-(1,1,3-trioxo-1lambda6-isothiazolidin-5-yl)-phenyl]-ethyl}-3-trifluoromethyl-benzenesulfonamide

> <Target Name>
Tyrosine-protein phosphatase non-receptor type 1

> <Target Source Organism According to Curator or DataSource>
Homo sapiens

> <IC50 (nM)>
52

> <Curation/DataSource>
ChEMBL

> <Article DOI>
10.1016/j.bmcl.2007.11.012

> <BindingDB Entry DOI>
10.7270/Q2BV7GCQ

> <PMID>
18037290

> <Authors>
Douty, B; Wayland, B; Ala, PJ; Bower, MJ; Pruitt, J; Bostrom, L; Wei, M; Klabe, R; Gonneville, L; Wynn, R; Burn, TC; Liu, PC; Combs, AP; Yue, EW

> <Institution>
Incyte Corporation

> <Link to Ligand in BindingDB>
http://www.bindingdb.org/bind/chemsearch/marvin/MolStructure.jsp?monomerid=50228036

> <Link to Ligand-Target Pair in BindingDB>
http://www.bindingdb.org/jsp/dbsearch/PrimarySearch_ki.jsp?energyterm=kJ/mole&tag=pol&polymerid=2622&target=Tyrosine-protein+phosphatase+non-receptor+type+1&column=ki&startPg=0&Increment=50&submit=Sea
rch
http://www.bindingdb.org/jsp/dbsearch/PrimarySearch_ki.jsp?energyterm=kJ/mole&tag=r21&monomerid=50228036&enzyme=Tyrosine-protein+phosphatase+non-receptor+type+1&column=ki&startPg=0&Increment=50&submit
=Search

> <PubChem CID of Ligand>
44446135

> <PubChem SID of Ligand>
104097723

> <ChEMBL ID of Ligand>
CHEMBL253269

> <ZINC ID of Ligand>
ZINC28977846

> <Number of Protein Chains in Target (bigger than 1 implies a multichain complex)>
1

> <BindingDB Target Chain Sequence>
MEMEKEFEQIDKSGSWAAIYQDIRHEASDFPCRVAKLPKNKNRNRYRDVSPFDHSRIKLHQEDNDYINASLIKMEEAQRSYILTQGPLPNTCGHFWEMVWEQKSRGVVMLNRVMEKGSLKCAQYWPQKEEKEMIFEDTNLKLTLISEDIKSYYTVRQLELENLTTQETREILHFHYTTWPDFGVPESPASFLNFLFKVRE
SGSLSPEHGPVVVHCSAGIGRSGTFCLADTCLLLMDKRKDPSSVDIKKVLLEMRKFRMGLIQTADQLRFSYLAVIEGAKFIMGDSSVQDQWKELSHEDLEPPPEHIPPPPRPPKRILEPHNGKCREFFPNHQWVKEETQEDKDCPIKEEKGSPLNAAPYGIESMSQDTEVRSRVVGGSLRGAQAASPAKGEPSLPEKDED
HALSYWKPFLVNMCVATVLTAGAYLCYRFLFNSNT

> <PDB ID(s) of Target Chain>
1BZJ,1G7G,1GFY,1JF7,1KAK,1KAV,1LQF,1NL9,1NNY,1NO6,1NZ7,1OEM,1OEO,1OES,1OET,1OEU,1OEV,1ONY,1ONZ,1PH0,1PXH,1PYN,1Q1M,1Q6J,1Q6M,1Q6N,1Q6P,1Q6S,1Q6T,1QXK,1SUG,1T48,1T49,1T4J,1WAX,1XBO,2AZR,2B07,2BGD,2BGE,
2CM2,2CM3,2CM7,2CM8,2CMA,2CMB,2CMC,2CNE,2CNF,2CNG,2CNH,2CNI,2F6T,2F6V,2F6W,2F6Y,2F6Z,2F70,2F71,2FJN,2H4G,2H4K,2HB1,2HNP,2HNQ,2QBP,2QBQ,2QBR,2QBS,2VEU,2VEV,2VEW,2VEX,2VEY,2ZMM,2ZN7,3A5J,3CWE,3D9C,3EAX,
3EB1,3EU0,3I7Z,3I80,3SME,4BJO,4I8N,4QBW,4Y14,5K9V,5K9W,5KA0,5KA1,5T19,6B90,6NTP,6W30,7KEY,7KLX,7LFO,7MN9,7MNA,8DU7,8G65,8G67,8G68,8G69,8G6A,8SKL

> <UniProt (SwissProt) Recommended Name of Target Chain>
Tyrosine-protein phosphatase non-receptor type 1

> <UniProt (SwissProt) Entry Name of Target Chain>
PTN1_HUMAN

> <UniProt (SwissProt) Primary ID of Target Chain>
P18031

> <UniProt (SwissProt) Secondary ID(s) of Target Chain>
Q5TGD8 Q9BQV9 Q9NQQ4

$$$$
Molecule
  SciTegic10242319433D

 67 71  0  0  0  0            999 V2000
    0.8303   -5.9258    0.0267 C   0  0
    1.4365   -4.7198    0.0011 C   0  0
    9.8124   -2.3881   -0.0625 C   0  0
   -0.5729   -5.7722    0.0289 O   0  0
   11.2557   -2.0915    0.0163 O   0  0
    0.3370   -3.7284   -0.0170 C   0  0
   -0.8457   -4.4566    0.0052 C   0  0
    8.6459   -1.4419   -0.4388 C   0  0
    9.4923   -3.6544    0.2314 C   0  0
    7.1056   -3.2722   -0.0584 C   0  0
   13.3328   -0.8882   -0.2860 C   0  0
    7.4056   -1.9114   -0.4123 C   0  0
    8.0901   -4.1182    0.2316 C   0  0
    2.9584   -4.3730   -0.0166 C   0  0
   11.8077   -0.7687   -0.2391 C   0  0  2  0  0  0
    1.5205   -7.3036    0.0427 C   0  0
    5.7016   -3.6852   -0.0414 C   0  0
   14.0691    0.0632    0.0035 O   0  0
    3.3513   -3.1163   -0.1823 C   0  0
    4.0214   -5.4075    0.1576 C   0  0
    5.3146   -5.0745    0.1524 C   0  0
    4.7631   -2.7561   -0.2039 C   0  0
    8.7841    0.3674   -1.0310 Br  0  0
   10.8761   -4.8805    0.6765 Br  0  0
   13.9097   -2.1167   -0.5840 O   0  0
    0.6139   -8.5317    0.0244 C   0  0
    0.3472   -2.4041   -0.0355 C   0  0
   -2.0462   -3.8809    0.0038 C   0  0
   11.3763    0.3663    0.7465 C   0  0
   -0.7163   -8.4383    0.0118 C   0  0
    1.2369   -9.8585    0.0198 C   0  0
   11.7657    1.7421    0.1366 C   0  0
   11.1533    2.8900    0.9473 C   0  0
   -0.9555   -1.7023   -0.0393 C   0  0
   -2.0946   -2.4082   -0.0205 C   0  0
   11.4421    4.2178    0.2199 C   0  0
   -1.5463   -9.6426   -0.0053 C   0  0
    0.4837  -10.9567    0.0039 C   0  0
   -0.9745  -10.8443   -0.0090 C   0  0
    6.5845   -1.2417   -0.6680 H   0  0
    7.8614   -5.1569    0.4701 H   0  0
   11.4787   -0.4709   -1.2347 H   0  0
    2.1662   -7.3583   -0.8338 H   0  0
    2.1281   -7.3567    0.9460 H   0  0
    2.6006   -2.3356   -0.3050 H   0  0
    3.7371   -6.4512    0.2911 H   0  0
    6.0773   -5.8404    0.2927 H   0  0
    5.0529   -1.7161   -0.3546 H   0  0
   13.6152   -2.8253    0.1328 H   0  0
    1.2852   -1.8489   -0.0474 H   0  0
   -2.9589   -4.4765    0.0201 H   0  0
   10.2979    0.3267    0.8996 H   0  0
   11.8845    0.2332    1.7016 H   0  0
   -1.1891   -7.4562    0.0143 H   0  0
    2.3233   -9.9469    0.0294 H   0  0
   12.8512    1.8407    0.1415 H   0  0
   11.4003    1.7945   -0.8890 H   0  0
   10.0763    2.7452    1.0322 H   0  0
   11.5969    2.9133    1.9427 H   0  0
   -0.9887   -0.6130   -0.0573 H   0  0
   -3.0555   -1.8937   -0.0232 H   0  0
   11.0118    5.0438    0.7860 H   0  0
   10.9994    4.1908   -0.7758 H   0  0
   12.5195    4.3589    0.1344 H   0  0
   -2.6328   -9.5558   -0.0150 H   0  0
    0.9542  -11.9399    0.0004 H   0  0
   -1.5915  -11.7428   -0.0215 H   0  0
  2  1  2  0
  3  9  2  0
  4  1  1  0
  5  3  1  0
  6  2  1  0
  7  4  1  0
  8 12  2  0
  9 13  1  0
 10 17  1  0
 11 15  1  0
 12 10  1  0
 13 10  2  0
 14  2  1  0
 15  5  1  0
 16  1  1  0
 17 21  1  0
 18 11  2  0
 19 14  2  0
 20 14  1  0
 21 20  2  0
 22 19  1  0
 23  8  1  0
 24  9  1  0
 25 11  1  0
 26 16  1  0
 27  6  2  0
 28  7  2  0
 29 15  1  0
 30 26  2  0
 31 26  1  0
 32 29  1  0
 33 32  1  0
 34 27  1  0
 35 28  1  0
 36 33  1  0
 37 30  1  0
 38 31  2  0
 39 38  1  0
  6  7  1  0
 34 35  2  0
 17 22  2  0
 37 39  2  0
  8  3  1  0
 12 40  1  0
 13 41  1  0
 15 42  1  0
 16 43  1  0
 16 44  1  0
 19 45  1  0
 20 46  1  0
 21 47  1  0
 22 48  1  0
 25 49  1  0
 27 50  1  0
 28 51  1  0
 29 52  1  0
 29 53  1  0
 30 54  1  0
 31 55  1  0
 32 56  1  0
 32 57  1  0
 33 58  1  0
 33 59  1  0
 34 60  1  0
 35 61  1  0
 36 62  1  0
 36 63  1  0
 36 64  1  0
 37 65  1  0
 38 66  1  0
 39 67  1  0
M  END
> <Name>
Molecule

> <Clean Energy>
46.4105

> <From>
www.bindingDB.org

> <BindingDB Reactant_set_id>
50154598

> <Ligand InChI>
InChI=1S/C33H28Br2O4/c1-2-3-12-29(33(36)37)39-32-26(34)19-24(20-27(32)35)22-14-16-23(17-15-22)31-25-11-7-8-13-28(25)38-30(31)18-21-9-5-4-6-10-21/h4-11,13-17,19-20,29H,2-3,12,18H2,1H3,(H,36,37)

> <Ligand InChI Key>
PCKQHLYWSVLRRO-UHFFFAOYSA-N

> <BindingDB MonomerID>
50086916

> <BindingDB Ligand Name>
2-[4'-(2-Benzyl-benzofuran-3-yl)-3,5-dibromo-biphenyl-4-yloxy]-hexanoic acid::CHEMBL26399

> <Target Name>
Tyrosine-protein phosphatase non-receptor type 1

> <Target Source Organism According to Curator or DataSource>
Homo sapiens

> <IC50 (nM)>
52

> <Curation/DataSource>
ChEMBL

> <Article DOI>
10.1021/jm990560c

> <BindingDB Entry DOI>
10.7270/Q2W958FT

> <PMID>
10753467

> <Authors>
Malamas, MS; Sredy, J; Moxham, C; Katz, A; Xu, W; McDevitt, R; Adebayo, FO; Sawicki, DR; Seestaller, L; Sullivan, D; Taylor, JR

> <Institution>
Wyeth-Ayerst Research

> <Link to Ligand in BindingDB>
http://www.bindingdb.org/bind/chemsearch/marvin/MolStructure.jsp?monomerid=50086916

> <Link to Ligand-Target Pair in BindingDB>
http://www.bindingdb.org/jsp/dbsearch/PrimarySearch_ki.jsp?energyterm=kJ/mole&tag=pol&polymerid=2622&target=Tyrosine-protein+phosphatase+non-receptor+type+1&column=ki&startPg=0&Increment=50&submit=Sea
rch
http://www.bindingdb.org/jsp/dbsearch/PrimarySearch_ki.jsp?energyterm=kJ/mole&tag=r21&monomerid=50086916&enzyme=Tyrosine-protein+phosphatase+non-receptor+type+1&column=ki&startPg=0&Increment=50&submit
=Search

> <PubChem CID of Ligand>
9895791

> <PubChem SID of Ligand>
103986027

> <ChEMBL ID of Ligand>
CHEMBL26399

> <ZINC ID of Ligand>
ZINC28756528

> <Number of Protein Chains in Target (bigger than 1 implies a multichain complex)>
1

> <BindingDB Target Chain Sequence>
MEMEKEFEQIDKSGSWAAIYQDIRHEASDFPCRVAKLPKNKNRNRYRDVSPFDHSRIKLHQEDNDYINASLIKMEEAQRSYILTQGPLPNTCGHFWEMVWEQKSRGVVMLNRVMEKGSLKCAQYWPQKEEKEMIFEDTNLKLTLISEDIKSYYTVRQLELENLTTQETREILHFHYTTWPDFGVPESPASFLNFLFKVRE
SGSLSPEHGPVVVHCSAGIGRSGTFCLADTCLLLMDKRKDPSSVDIKKVLLEMRKFRMGLIQTADQLRFSYLAVIEGAKFIMGDSSVQDQWKELSHEDLEPPPEHIPPPPRPPKRILEPHNGKCREFFPNHQWVKEETQEDKDCPIKEEKGSPLNAAPYGIESMSQDTEVRSRVVGGSLRGAQAASPAKGEPSLPEKDED
HALSYWKPFLVNMCVATVLTAGAYLCYRFLFNSNT

> <PDB ID(s) of Target Chain>
1BZJ,1G7G,1GFY,1JF7,1KAK,1KAV,1LQF,1NL9,1NNY,1NO6,1NZ7,1OEM,1OEO,1OES,1OET,1OEU,1OEV,1ONY,1ONZ,1PH0,1PXH,1PYN,1Q1M,1Q6J,1Q6M,1Q6N,1Q6P,1Q6S,1Q6T,1QXK,1SUG,1T48,1T49,1T4J,1WAX,1XBO,2AZR,2B07,2BGD,2BGE,
2CM2,2CM3,2CM7,2CM8,2CMA,2CMB,2CMC,2CNE,2CNF,2CNG,2CNH,2CNI,2F6T,2F6V,2F6W,2F6Y,2F6Z,2F70,2F71,2FJN,2H4G,2H4K,2HB1,2HNP,2HNQ,2QBP,2QBQ,2QBR,2QBS,2VEU,2VEV,2VEW,2VEX,2VEY,2ZMM,2ZN7,3A5J,3CWE,3D9C,3EAX,
3EB1,3EU0,3I7Z,3I80,3SME,4BJO,4I8N,4QBW,4Y14,5K9V,5K9W,5KA0,5KA1,5T19,6B90,6NTP,6W30,7KEY,7KLX,7LFO,7MN9,7MNA,8DU7,8G65,8G67,8G68,8G69,8G6A,8SKL

> <UniProt (SwissProt) Recommended Name of Target Chain>
Tyrosine-protein phosphatase non-receptor type 1

> <UniProt (SwissProt) Entry Name of Target Chain>
PTN1_HUMAN

> <UniProt (SwissProt) Primary ID of Target Chain>
P18031

> <UniProt (SwissProt) Secondary ID(s) of Target Chain>
Q5TGD8 Q9BQV9 Q9NQQ4

$$$$
Molecule
  SciTegic10242319433D

 78 84  0  0  0  0            999 V2000
   -3.8676  -10.1825    0.0164 C   0  0
   -4.5746  -11.5028    0.0674 C   0  0
   -3.8033  -12.5865    0.1582 C   0  0
   -2.3561  -12.5075    0.2044 C   0  0
   -1.7319  -11.3379    0.1603 C   0  0
   -2.5285  -10.1066    0.0588 C   0  0
   -0.2491  -11.3491    0.1924 C   0  0
    0.4099  -12.6370    0.3008 C   0  0
    1.7330  -12.7293    0.2945 C   0  0
    2.5856  -11.5376    0.1705 C   0  0
    1.9854  -10.3232    0.0967 C   0  0
    0.4876  -10.2399    0.1083 C   0  0
   -6.1567  -11.6129    0.0250 C   0  0
   -8.5692  -12.3690   -0.0305 S   0  0
   -6.9078  -12.7726    0.0091 C   0  0
   -8.4781  -10.7415   -0.0272 C   0  0
   -7.1036  -10.3697    0.0001 C   0  0
   -6.7723   -9.0807    0.0085 C   0  0
   -7.8571   -8.0692   -0.0124 C   0  0
   -9.1416   -8.4477   -0.0364 C   0  0
   -9.4817   -9.8750   -0.0444 C   0  0
    4.0340  -11.6655    0.1103 O   0  0
   -6.3833  -14.2444    0.0206 C   0  0
   -7.3849  -15.4099    0.0105 C   0  0
   -8.7054  -15.2350    0.0054 C   0  0
   -9.6116  -16.3856   -0.0026 C   0  0
   -9.1188  -17.6217   -0.0044 C   0  0
   -7.6718  -17.8263    0.0014 C   0  0
   -6.8499  -16.7780    0.0084 C   0  0
    4.6860  -13.0100    0.1559 C   0  0  2  0  0  0
    6.2453  -12.7367    0.0816 C   0  0
    7.2052  -13.9367    0.2007 C   0  0
    6.8473  -15.0871    0.7768 C   0  0
    7.8048  -16.1998    0.8664 C   0  0
    9.0379  -16.0642    0.3808 C   0  0
    9.4412  -14.8031   -0.2392 C   0  0
    8.5743  -13.7944   -0.3234 C   0  0
    4.2813  -13.9255   -1.0334 C   0  0
    3.4480  -13.5400   -1.8598 O   0  0
    4.7865  -15.2151   -1.1552 O   0  0
    2.7504   -9.0231   -0.0121 C   0  0
    4.0846   -8.9735   -0.0185 C   0  0
    4.7895   -7.6927   -0.1032 C   0  0
    4.1002   -6.5572   -0.1715 C   0  0
    2.6366   -6.5938   -0.1669 C   0  0
    1.9962   -7.7617   -0.0925 C   0  0
    4.9334   -5.0439   -0.2625 Cl  0  0
   -4.4526   -9.2657   -0.0565 H   0  0
   -4.2776  -13.5670    0.1993 H   0  0
   -1.7714  -13.4245    0.2764 H   0  0
   -2.0336   -9.1363    0.0181 H   0  0
   -0.1911  -13.5420    0.3888 H   0  0
    2.1990  -13.7107    0.3831 H   0  0
   -0.0016   -9.2677    0.0476 H   0  0
   -5.7263   -8.7749    0.0302 H   0  0
   -7.6066   -7.0084   -0.0081 H   0  0
   -9.9322   -7.6975   -0.0500 H   0  0
  -10.5188  -10.2099   -0.0638 H   0  0
   -5.7528  -14.3620   -0.8607 H   0  0
   -5.7770  -14.3567    0.9194 H   0  0
   -9.1158  -14.2252    0.0073 H   0  0
  -10.6904  -16.2293   -0.0071 H   0  0
   -9.7922  -18.4789   -0.0101 H   0  0
   -7.2647  -18.8374   -0.0001 H   0  0
   -5.7716  -16.9366    0.0125 H   0  0
    4.4444  -13.5032    1.0974 H   0  0
    6.4436  -12.2594   -0.8780 H   0  0
    6.4905  -12.0465    0.8888 H   0  0
    5.8420  -15.2018    1.1820 H   0  0
    7.5045  -17.1386    1.3318 H   0  0
    9.7445  -16.8916    0.4456 H   0  0
   10.4511  -14.6879   -0.6327 H   0  0
    8.8812  -12.8556   -0.7843 H   0  0
    5.8335  -15.1761   -1.2261 H   0  0
    4.6571   -9.8992    0.0402 H   0  0
    5.8792   -7.6700   -0.1102 H   0  0
    2.0691   -5.6650   -0.2245 H   0  0
    0.9064   -7.7819   -0.0911 H   0  0
 10 22  1  0
  5  6  1  0
 15 23  1  0
 11 12  1  0
 23 24  1  0
 12  7  2  0
 24 25  2  0
  5  7  1  0
 25 26  1  0
 13 17  1  0
 26 27  2  0
  6  1  2  0
 27 28  1  0
  1  2  1  0
 28 29  2  0
 29 24  1  0
  3  4  1  0
 30 22  1  0
 16 14  1  0
 30 31  1  0
 14 15  1  0
 31 32  1  0
 15 13  2  0
 32 33  2  0
  2 13  1  0
 33 34  1  0
  7  8  1  0
 34 35  2  0
 35 36  1  0
 16 17  1  0
 36 37  2  0
 37 32  1  0
  8  9  2  0
 30 38  1  0
 17 18  2  0
 38 39  2  0
  4  5  2  0
 38 40  1  0
 18 19  1  0
 11 41  1  0
  9 10  1  0
 41 42  2  0
 19 20  2  0
 42 43  1  0
  2  3  2  0
 43 44  2  0
 20 21  1  0
 44 45  1  0
 21 16  2  0
 45 46  2  0
 46 41  1  0
 10 11  2  0
 44 47  1  0
  1 48  1  0
  3 49  1  0
  4 50  1  0
  6 51  1  0
  8 52  1  0
  9 53  1  0
 12 54  1  0
 18 55  1  0
 19 56  1  0
 20 57  1  0
 21 58  1  0
 23 59  1  0
 23 60  1  0
 25 61  1  0
 26 62  1  0
 27 63  1  0
 28 64  1  0
 29 65  1  0
 30 66  1  0
 31 67  1  0
 31 68  1  0
 33 69  1  0
 34 70  1  0
 35 71  1  0
 36 72  1  0
 37 73  1  0
 40 74  1  0
 42 75  1  0
 43 76  1  0
 45 77  1  0
 46 78  1  0
M  END
> <Name>
Molecule

> <Clean Energy>
53.6075

> <From>
www.bindingDB.org

> <BindingDB Reactant_set_id>
51015867

> <Ligand InChI>
InChI=1S/C42H31ClO3S/c43-34-22-19-31(20-23-34)36-27-33(21-24-37(36)46-38(42(44)45)25-28-9-3-1-4-10-28)30-15-17-32(18-16-30)41-35-13-7-8-14-39(35)47-40(41)26-29-11-5-2-6-12-29/h1-24,27,38H,25-26H2,(H,4
4,45)/t38-/m1/s1

> <Ligand InChI Key>
ASAPNNLBIMTRGL-KXQOOQHDSA-N

> <BindingDB MonomerID>
50416032

> <BindingDB Ligand Name>
CHEMBL1082298

> <Target Name>
Tyrosine-protein phosphatase non-receptor type 1

> <Target Source Organism According to Curator or DataSource>
Homo sapiens

> <IC50 (nM)>
52.48

> <Curation/DataSource>
ChEMBL

> <Article DOI>
10.1016/j.bmcl.2010.04.033

> <BindingDB Entry DOI>
10.7270/Q27D2WCC

> <PMID>
20452766

> <Authors>
Cheng, Y; Zhou, M; Tung, CH; Ji, M; Zhang, F

> <Institution>
Tsinghua University

> <Link to Ligand in BindingDB>
http://www.bindingdb.org/bind/chemsearch/marvin/MolStructure.jsp?monomerid=50416032

> <Link to Ligand-Target Pair in BindingDB>
http://www.bindingdb.org/jsp/dbsearch/PrimarySearch_ki.jsp?energyterm=kJ/mole&tag=pol&polymerid=2622&target=Tyrosine-protein+phosphatase+non-receptor+type+1&column=ki&startPg=0&Increment=50&submit=Sea
rch
http://www.bindingdb.org/jsp/dbsearch/PrimarySearch_ki.jsp?energyterm=kJ/mole&tag=r21&monomerid=50416032&enzyme=Tyrosine-protein+phosphatase+non-receptor+type+1&column=ki&startPg=0&Increment=50&submit
=Search

> <PubChem CID of Ligand>
9830970

> <PubChem SID of Ligand>
163365056

> <ChEMBL ID of Ligand>
CHEMBL1082298

> <ZINC ID of Ligand>
ZINC28759031

> <Number of Protein Chains in Target (bigger than 1 implies a multichain complex)>
1

> <BindingDB Target Chain Sequence>
MEMEKEFEQIDKSGSWAAIYQDIRHEASDFPCRVAKLPKNKNRNRYRDVSPFDHSRIKLHQEDNDYINASLIKMEEAQRSYILTQGPLPNTCGHFWEMVWEQKSRGVVMLNRVMEKGSLKCAQYWPQKEEKEMIFEDTNLKLTLISEDIKSYYTVRQLELENLTTQETREILHFHYTTWPDFGVPESPASFLNFLFKVRE
SGSLSPEHGPVVVHCSAGIGRSGTFCLADTCLLLMDKRKDPSSVDIKKVLLEMRKFRMGLIQTADQLRFSYLAVIEGAKFIMGDSSVQDQWKELSHEDLEPPPEHIPPPPRPPKRILEPHNGKCREFFPNHQWVKEETQEDKDCPIKEEKGSPLNAAPYGIESMSQDTEVRSRVVGGSLRGAQAASPAKGEPSLPEKDED
HALSYWKPFLVNMCVATVLTAGAYLCYRFLFNSNT

> <PDB ID(s) of Target Chain>
1BZJ,1G7G,1GFY,1JF7,1KAK,1KAV,1LQF,1NL9,1NNY,1NO6,1NZ7,1OEM,1OEO,1OES,1OET,1OEU,1OEV,1ONY,1ONZ,1PH0,1PXH,1PYN,1Q1M,1Q6J,1Q6M,1Q6N,1Q6P,1Q6S,1Q6T,1QXK,1SUG,1T48,1T49,1T4J,1WAX,1XBO,2AZR,2B07,2BGD,2BGE,
2CM2,2CM3,2CM7,2CM8,2CMA,2CMB,2CMC,2CNE,2CNF,2CNG,2CNH,2CNI,2F6T,2F6V,2F6W,2F6Y,2F6Z,2F70,2F71,2FJN,2H4G,2H4K,2HB1,2HNP,2HNQ,2QBP,2QBQ,2QBR,2QBS,2VEU,2VEV,2VEW,2VEX,2VEY,2ZMM,2ZN7,3A5J,3CWE,3D9C,3EAX,
3EB1,3EU0,3I7Z,3I80,3SME,4BJO,4I8N,4QBW,4Y14,5K9V,5K9W,5KA0,5KA1,5T19,6B90,6NTP,6W30,7KEY,7KLX,7LFO,7MN9,7MNA,8DU7,8G65,8G67,8G68,8G69,8G6A,8SKL

> <UniProt (SwissProt) Recommended Name of Target Chain>
Tyrosine-protein phosphatase non-receptor type 1

> <UniProt (SwissProt) Entry Name of Target Chain>
PTN1_HUMAN

> <UniProt (SwissProt) Primary ID of Target Chain>
P18031

> <UniProt (SwissProt) Secondary ID(s) of Target Chain>
Q5TGD8 Q9BQV9 Q9NQQ4

$$$$
Molecule
  SciTegic10242319433D

 82 88  0  0  0  0            999 V2000
    8.7387   -3.3480    0.0171 C   0  0
    8.0370   -4.6713    0.0673 C   0  0
    8.8126   -5.7520    0.1567 C   0  0
   10.2604   -5.6655    0.2020 C   0  0
   10.8794   -4.4927    0.1585 C   0  0
   10.0773   -3.2656    0.0587 C   0  0
   12.3628   -4.4968    0.1902 C   0  0
   13.0253   -5.7819    0.2963 C   0  0
   14.3483   -5.8703    0.2906 C   0  0
   15.1985   -4.6767    0.1710 C   0  0
   14.5958   -3.4632    0.0992 C   0  0
   13.0963   -3.3847    0.1088 C   0  0
    6.4554   -4.7867    0.0252 C   0  0
    4.0449   -5.5480   -0.0302 S   0  0
    5.7070   -5.9484    0.0095 C   0  0
    4.1319   -3.9210   -0.0272 C   0  0
    5.5051   -3.5458    0.0002 C   0  0
    5.8328   -2.2560    0.0084 C   0  0
    4.7455   -1.2474   -0.0127 C   0  0
    3.4621   -1.6293   -0.0369 C   0  0
    3.1259   -3.0573   -0.0447 C   0  0
   16.6476   -4.8043    0.1128 O   0  0
    6.2337   -7.4200    0.0212 C   0  0
    5.2302   -8.5861    0.0109 C   0  0
    3.9097   -8.4099    0.0058 C   0  0
    3.0014   -9.5588   -0.0025 C   0  0
    3.4921  -10.7956   -0.0044 C   0  0
    4.9390  -11.0023    0.0015 C   0  0
    5.7628   -9.9553    0.0087 C   0  0
   17.2939   -6.1529    0.1532 C   0  0  2  0  0  0
   18.8555   -5.8919    0.0879 C   0  0
   19.8021   -7.1032    0.2053 C   0  0
   19.4307   -8.2500    0.7801 C   0  0
   20.3747   -9.3742    0.8686 C   0  0
   21.6092   -9.2529    0.3830 C   0  0
   22.0275   -7.9959   -0.2357 C   0  0
   21.1728   -6.9767   -0.3187 C   0  0
   16.8896   -7.0587   -1.0445 C   0  0
   16.0641   -6.6619   -1.8734 O   0  0
   17.3853   -8.3516   -1.1707 O   0  0
   15.3589   -2.1601   -0.0025 C   0  0
   16.6926   -2.1068    0.0126 C   0  0
   17.3957   -0.8232   -0.0594 C   0  0
   16.7066    0.3152   -0.1392 C   0  0
   15.2422    0.2689   -0.1608 C   0  0
   14.6040   -0.9009   -0.0962 C   0  0
   17.3652    1.5608   -0.1981 O   0  0
   18.7946    1.4068   -0.1526 C   0  0
    8.1495   -2.4337   -0.0546 H   0  0
    8.3428   -6.7348    0.1971 H   0  0
   10.8496   -6.5798    0.2730 H   0  0
   10.5675   -2.2929    0.0187 H   0  0
   12.4270   -6.6890    0.3821 H   0  0
   14.8166   -6.8508    0.3767 H   0  0
   12.6040   -2.4140    0.0489 H   0  0
    6.8780   -1.9473    0.0303 H   0  0
    4.9932   -0.1859   -0.0085 H   0  0
    2.6695   -0.8811   -0.0507 H   0  0
    2.0897   -3.3950   -0.0642 H   0  0
    6.8644   -7.5374   -0.8599 H   0  0
    6.8398   -7.5320    0.9202 H   0  0
    3.5007   -7.3996    0.0078 H   0  0
    1.9229   -9.4006   -0.0070 H   0  0
    2.8174  -11.6517   -0.0102 H   0  0
    5.3444  -12.0141   -0.0001 H   0  0
    6.8409  -10.1159    0.0129 H   0  0
   17.0443   -6.6511    1.0901 H   0  0
   19.0630   -5.4111   -0.8681 H   0  0
   19.1030   -5.2085    0.9002 H   0  0
   18.4240   -8.3532    1.1852 H   0  0
   20.0632  -10.3098    1.3330 H   0  0
   22.3059  -10.0887    0.4468 H   0  0
   23.0387   -7.8924   -0.6292 H   0  0
   21.4910   -6.0410   -0.7785 H   0  0
   18.4329   -8.3207   -1.2345 H   0  0
   17.2666   -3.0310    0.0795 H   0  0
   18.4854   -0.7990   -0.0478 H   0  0
   14.6713    1.1949   -0.2300 H   0  0
   13.5144   -0.9239   -0.1130 H   0  0
   19.2679    2.3875   -0.2002 H   0  0
   19.1228    0.8042   -0.9996 H   0  0
   19.0778    0.9119    0.7764 H   0  0
  5  6  1  0
 15 23  1  0
 11 12  1  0
 23 24  1  0
 12  7  2  0
 24 25  2  0
  5  7  1  0
 25 26  1  0
 13 17  1  0
 26 27  2  0
  6  1  2  0
 27 28  1  0
  1  2  1  0
 28 29  2  0
 29 24  1  0
  3  4  1  0
 30 22  1  0
 16 14  1  0
 30 31  1  0
 14 15  1  0
 31 32  1  0
 15 13  2  0
 32 33  2  0
  2 13  1  0
 33 34  1  0
  7  8  1  0
 34 35  2  0
 35 36  1  0
 16 17  1  0
 36 37  2  0
 37 32  1  0
  8  9  2  0
 30 38  1  0
 17 18  2  0
 38 39  2  0
  4  5  2  0
 38 40  1  0
 18 19  1  0
 11 41  1  0
  9 10  1  0
 41 42  2  0
 19 20  2  0
 42 43  1  0
  2  3  2  0
 43 44  2  0
 20 21  1  0
 44 45  1  0
 21 16  2  0
 45 46  2  0
 46 41  1  0
 10 11  2  0
 44 47  1  0
 10 22  1  0
 47 48  1  0
  1 49  1  0
  3 50  1  0
  4 51  1  0
  6 52  1  0
  8 53  1  0
  9 54  1  0
 12 55  1  0
 18 56  1  0
 19 57  1  0
 20 58  1  0
 21 59  1  0
 23 60  1  0
 23 61  1  0
 25 62  1  0
 26 63  1  0
 27 64  1  0
 28 65  1  0
 29 66  1  0
 30 67  1  0
 31 68  1  0
 31 69  1  0
 33 70  1  0
 34 71  1  0
 35 72  1  0
 36 73  1  0
 37 74  1  0
 40 75  1  0
 42 76  1  0
 43 77  1  0
 45 78  1  0
 46 79  1  0
 48 80  1  0
 48 81  1  0
 48 82  1  0
M  END
> <Name>
Molecule

> <Clean Energy>
53.796

> <From>
www.bindingDB.org

> <BindingDB Reactant_set_id>
51015946

> <Ligand InChI>
InChI=1S/C43H34O4S/c1-46-35-23-20-32(21-24-35)37-28-34(22-25-38(37)47-39(43(44)45)26-29-10-4-2-5-11-29)31-16-18-33(19-17-31)42-36-14-8-9-15-40(36)48-41(42)27-30-12-6-3-7-13-30/h2-25,28,39H,26-27H2,1H3
,(H,44,45)/t39-/m1/s1

> <Ligand InChI Key>
CRMKKTGWCSAERD-LDLOPFEMSA-N

> <BindingDB MonomerID>
50416051

> <BindingDB Ligand Name>
CHEMBL1082297

> <Target Name>
Tyrosine-protein phosphatase non-receptor type 1

> <Target Source Organism According to Curator or DataSource>
Homo sapiens

> <IC50 (nM)>
52.48

> <Curation/DataSource>
ChEMBL

> <Article DOI>
10.1016/j.bmcl.2010.04.033

> <BindingDB Entry DOI>
10.7270/Q27D2WCC

> <PMID>
20452766

> <Authors>
Cheng, Y; Zhou, M; Tung, CH; Ji, M; Zhang, F

> <Institution>
Tsinghua University

> <Link to Ligand in BindingDB>
http://www.bindingdb.org/bind/chemsearch/marvin/MolStructure.jsp?monomerid=50416051

> <Link to Ligand-Target Pair in BindingDB>
http://www.bindingdb.org/jsp/dbsearch/PrimarySearch_ki.jsp?energyterm=kJ/mole&tag=pol&polymerid=2622&target=Tyrosine-protein+phosphatase+non-receptor+type+1&column=ki&startPg=0&Increment=50&submit=Sea
rch
http://www.bindingdb.org/jsp/dbsearch/PrimarySearch_ki.jsp?energyterm=kJ/mole&tag=r21&monomerid=50416051&enzyme=Tyrosine-protein+phosphatase+non-receptor+type+1&column=ki&startPg=0&Increment=50&submit
=Search

> <PubChem CID of Ligand>
9809675

> <PubChem SID of Ligand>
163365075

> <ChEMBL ID of Ligand>
CHEMBL1082297

> <ZINC ID of Ligand>
ZINC28758457

> <Number of Protein Chains in Target (bigger than 1 implies a multichain complex)>
1

> <BindingDB Target Chain Sequence>
MEMEKEFEQIDKSGSWAAIYQDIRHEASDFPCRVAKLPKNKNRNRYRDVSPFDHSRIKLHQEDNDYINASLIKMEEAQRSYILTQGPLPNTCGHFWEMVWEQKSRGVVMLNRVMEKGSLKCAQYWPQKEEKEMIFEDTNLKLTLISEDIKSYYTVRQLELENLTTQETREILHFHYTTWPDFGVPESPASFLNFLFKVRE
SGSLSPEHGPVVVHCSAGIGRSGTFCLADTCLLLMDKRKDPSSVDIKKVLLEMRKFRMGLIQTADQLRFSYLAVIEGAKFIMGDSSVQDQWKELSHEDLEPPPEHIPPPPRPPKRILEPHNGKCREFFPNHQWVKEETQEDKDCPIKEEKGSPLNAAPYGIESMSQDTEVRSRVVGGSLRGAQAASPAKGEPSLPEKDED
HALSYWKPFLVNMCVATVLTAGAYLCYRFLFNSNT

> <PDB ID(s) of Target Chain>
1BZJ,1G7G,1GFY,1JF7,1KAK,1KAV,1LQF,1NL9,1NNY,1NO6,1NZ7,1OEM,1OEO,1OES,1OET,1OEU,1OEV,1ONY,1ONZ,1PH0,1PXH,1PYN,1Q1M,1Q6J,1Q6M,1Q6N,1Q6P,1Q6S,1Q6T,1QXK,1SUG,1T48,1T49,1T4J,1WAX,1XBO,2AZR,2B07,2BGD,2BGE,
2CM2,2CM3,2CM7,2CM8,2CMA,2CMB,2CMC,2CNE,2CNF,2CNG,2CNH,2CNI,2F6T,2F6V,2F6W,2F6Y,2F6Z,2F70,2F71,2FJN,2H4G,2H4K,2HB1,2HNP,2HNQ,2QBP,2QBQ,2QBR,2QBS,2VEU,2VEV,2VEW,2VEX,2VEY,2ZMM,2ZN7,3A5J,3CWE,3D9C,3EAX,
3EB1,3EU0,3I7Z,3I80,3SME,4BJO,4I8N,4QBW,4Y14,5K9V,5K9W,5KA0,5KA1,5T19,6B90,6NTP,6W30,7KEY,7KLX,7LFO,7MN9,7MNA,8DU7,8G65,8G67,8G68,8G69,8G6A,8SKL

> <UniProt (SwissProt) Recommended Name of Target Chain>
Tyrosine-protein phosphatase non-receptor type 1

> <UniProt (SwissProt) Entry Name of Target Chain>
PTN1_HUMAN

> <UniProt (SwissProt) Primary ID of Target Chain>
P18031

> <UniProt (SwissProt) Secondary ID(s) of Target Chain>
Q5TGD8 Q9BQV9 Q9NQQ4

$$$$
Molecule
  SciTegic10242319433D

 68 73  0  0  0  0            999 V2000
   14.0407   -8.4919   -0.0303 C   0  0
   13.9513   -9.9382   -0.0313 C   0  0
   15.0804  -10.6591   -0.0186 C   0  0
   16.4769  -10.0366    0.0045 C   0  0
   16.5133   -8.7130    0.0004 C   0  0
   15.2492   -7.9695   -0.0099 C   0  0
   12.7613   -7.6008    0.0968 C   0  0
   17.8444  -10.9451    0.0350 C   0  0  1  0  0  0
   12.6355   -5.9717   -0.2471 C   0  0  1  0  0  0
   11.1630   -5.3195    0.1253 N   0  0
   13.9760   -4.9968   -0.0529 C   0  0
   15.3618   -5.4648   -0.0139 N   0  0
   13.9911   -3.7035   -0.0265 N   0  0
   15.4075   -3.2847    0.0173 C   0  0
   16.2085   -4.3906    0.0102 C   0  0
   17.5614   -4.3553    0.0050 C   0  0
   18.2392   -2.9898    0.0106 C   0  0
   17.4431   -1.9092    0.0154 C   0  0
   15.9303   -2.0582    0.0137 C   0  0
   17.7404  -12.6852   -0.5757 S   0  0
   19.4831  -12.7570   -0.1090 N   0  0
   20.1887  -11.5312   -0.0283 C   0  0
   19.2975  -10.3055   -0.2011 C   0  0
   17.9568  -13.7826    0.3547 O   0  0
   16.5876  -12.6696    0.3776 O   0  0
   21.4245  -11.4794    0.1707 O   0  0
    9.6712   -6.3477   -0.4036 S   0  0
    7.9612   -7.0294   -0.1312 C   0  0
   10.1703   -7.5179    0.5367 O   0  0
    8.9558   -5.0667    0.1247 O   0  0
    6.8218   -6.3228   -0.0816 C   0  0
    5.4613   -7.0583    0.0146 C   0  0
    5.3862   -8.4053    0.0302 C   0  0
    6.6663   -9.1496   -0.0042 C   0  0
    7.8507   -8.5150   -0.0781 C   0  0
    4.0045   -9.1866    0.0393 C   0  0
    2.8307   -8.5385    0.0280 C   0  0
    1.5345   -9.2941    0.0100 C   0  0
    1.5243  -10.6273   -0.0030 C   0  0
    2.7975  -11.3539    0.0032 C   0  0
    3.9635  -10.6879    0.0236 C   0  0
   19.7393   -2.8192    0.0047 C   0  0
   20.8897   -2.6808   -0.0003 N   0  0
   12.9798  -10.4323   -0.0421 H   0  0
   14.9994  -11.7461   -0.0252 H   0  0
   17.4668   -8.1848    0.0047 H   0  0
   15.3165   -6.8817    0.0002 H   0  0
   12.0197   -8.0810   -0.5416 H   0  0
   12.4576   -7.6922    1.1397 H   0  0
   17.9066  -11.1363    1.1063 H   0  0
   12.5691   -6.0032   -1.3346 H   0  0
   11.0933   -4.3650   -0.3531 H   0  0
   15.6663   -6.4905   -0.0056 H   0  0
   18.1479   -5.2741   -0.0030 H   0  0
   17.8865   -0.9134    0.0208 H   0  0
   15.2855   -1.1794    0.0095 H   0  0
   19.9645  -13.6898    0.0987 H   0  0
   19.5227   -9.5396    0.5411 H   0  0
   19.3901   -9.8815   -1.2010 H   0  0
    6.8530   -5.2336   -0.1090 H   0  0
    4.5431   -6.4735    0.0710 H   0  0
    6.6485  -10.2389    0.0311 H   0  0
    8.7639   -9.1099   -0.0998 H   0  0
    2.8179   -7.4485    0.0319 H   0  0
    0.5915   -8.7474    0.0075 H   0  0
    0.5797  -11.1710   -0.0181 H   0  0
    2.7978  -12.4438   -0.0089 H   0  0
    4.8986  -11.2480    0.0288 H   0  0
  9 10  1  0
  2  3  2  0
  9 11  1  0
 20 21  1  0
 21 22  1  0
 22 23  1  0
  8 23  1  0
 11 12  1  0
 20 24  2  0
  5  6  1  0
 20 25  2  0
  6  1  2  0
 22 26  2  0
 12 15  1  0
 10 27  1  0
 14 13  1  0
 27 28  1  0
 13 11  2  0
 27 29  2  0
  1  2  1  0
 27 30  2  0
  1  7  1  0
 28 31  2  0
 14 15  1  0
 31 32  1  0
  3  4  1  0
 32 33  2  0
 15 16  2  0
 33 34  1  0
  4  8  1  0
 34 35  2  0
 35 28  1  0
 16 17  1  0
 33 36  1  0
 36 37  2  0
 17 18  2  0
 37 38  1  0
  9  7  1  0
 38 39  2  0
 18 19  1  0
 39 40  1  0
 19 14  2  0
 40 41  2  0
 41 36  1  0
  8 20  1  0
 17 42  1  0
  4  5  2  0
 42 43  3  0
  2 44  1  0
  3 45  1  0
  5 46  1  0
  6 47  1  0
  7 48  1  0
  7 49  1  0
  8 50  1  0
  9 51  1  0
 10 52  1  0
 12 53  1  0
 16 54  1  0
 18 55  1  0
 19 56  1  0
 21 57  1  0
 23 58  1  0
 23 59  1  0
 31 60  1  0
 32 61  1  0
 34 62  1  0
 35 63  1  0
 37 64  1  0
 38 65  1  0
 39 66  1  0
 40 67  1  0
 41 68  1  0
M  END
> <Name>
Molecule

> <Clean Energy>
279.123

> <From>
www.bindingDB.org

> <BindingDB Reactant_set_id>
50350927

> <Ligand InChI>
InChI=1S/C31H25N5O5S2/c32-19-21-8-15-26-27(17-21)34-31(33-26)28(16-20-6-9-24(10-7-20)29-18-30(37)36-43(29,40)41)35-42(38,39)25-13-11-23(12-14-25)22-4-2-1-3-5-22/h1-15,17,28-29,35H,16,18H2,(H,33,34)(H,
36,37)

> <Ligand InChI Key>
MVJVTJMEHPNMCJ-UHFFFAOYSA-N

> <BindingDB MonomerID>
50189647

> <BindingDB Ligand Name>
CHEMBL264833::biphenyl-4-sulfonic acid {1-(5-cyano-1H-benzoimidazol-2-yl)-2-[4-(1,1,3-trioxo-1lambda*6*-isothiazolidin-5-yl)-phenyl]-ethyl}-amide

> <Target Name>
Tyrosine-protein phosphatase non-receptor type 1

> <Target Source Organism According to Curator or DataSource>
Homo sapiens

> <IC50 (nM)>
53

> <Curation/DataSource>
ChEMBL

> <Article DOI>
10.1021/jm0600904

> <BindingDB Entry DOI>
10.7270/Q2JQ10M8

> <PMID>
16789735

> <Authors>
Combs, AP; Zhu, W; Crawley, ML; Glass, B; Polam, P; Sparks, RB; Modi, D; Takvorian, A; McLaughlin, E; Yue, EW; Wasserman, Z; Bower, M; Wei, M; Rupar, M; Ala, PJ; Reid, BM; Ellis, D; Gonneville, L; Emm
, T; Taylor, N; Yeleswaram, S; Li, Y; Wynn, R; Burn, TC; Hollis, G; Liu, PC; Metcalf, B

> <Institution>
Incyte Corporation

> <Link to Ligand in BindingDB>
http://www.bindingdb.org/bind/chemsearch/marvin/MolStructure.jsp?monomerid=50189647

> <Link to Ligand-Target Pair in BindingDB>
http://www.bindingdb.org/jsp/dbsearch/PrimarySearch_ki.jsp?energyterm=kJ/mole&tag=pol&polymerid=2622&target=Tyrosine-protein+phosphatase+non-receptor+type+1&column=ki&startPg=0&Increment=50&submit=Sea
rch
http://www.bindingdb.org/jsp/dbsearch/PrimarySearch_ki.jsp?energyterm=kJ/mole&tag=r21&monomerid=50189647&enzyme=Tyrosine-protein+phosphatase+non-receptor+type+1&column=ki&startPg=0&Increment=50&submit
=Search

> <PubChem CID of Ligand>
44413043

> <PubChem SID of Ligand>
104073168

> <ChEMBL ID of Ligand>
CHEMBL264833

> <ZINC ID of Ligand>
ZINC36088596

> <Number of Protein Chains in Target (bigger than 1 implies a multichain complex)>
1

> <BindingDB Target Chain Sequence>
MEMEKEFEQIDKSGSWAAIYQDIRHEASDFPCRVAKLPKNKNRNRYRDVSPFDHSRIKLHQEDNDYINASLIKMEEAQRSYILTQGPLPNTCGHFWEMVWEQKSRGVVMLNRVMEKGSLKCAQYWPQKEEKEMIFEDTNLKLTLISEDIKSYYTVRQLELENLTTQETREILHFHYTTWPDFGVPESPASFLNFLFKVRE
SGSLSPEHGPVVVHCSAGIGRSGTFCLADTCLLLMDKRKDPSSVDIKKVLLEMRKFRMGLIQTADQLRFSYLAVIEGAKFIMGDSSVQDQWKELSHEDLEPPPEHIPPPPRPPKRILEPHNGKCREFFPNHQWVKEETQEDKDCPIKEEKGSPLNAAPYGIESMSQDTEVRSRVVGGSLRGAQAASPAKGEPSLPEKDED
HALSYWKPFLVNMCVATVLTAGAYLCYRFLFNSNT

> <PDB ID(s) of Target Chain>
1BZJ,1G7G,1GFY,1JF7,1KAK,1KAV,1LQF,1NL9,1NNY,1NO6,1NZ7,1OEM,1OEO,1OES,1OET,1OEU,1OEV,1ONY,1ONZ,1PH0,1PXH,1PYN,1Q1M,1Q6J,1Q6M,1Q6N,1Q6P,1Q6S,1Q6T,1QXK,1SUG,1T48,1T49,1T4J,1WAX,1XBO,2AZR,2B07,2BGD,2BGE,
2CM2,2CM3,2CM7,2CM8,2CMA,2CMB,2CMC,2CNE,2CNF,2CNG,2CNH,2CNI,2F6T,2F6V,2F6W,2F6Y,2F6Z,2F70,2F71,2FJN,2H4G,2H4K,2HB1,2HNP,2HNQ,2QBP,2QBQ,2QBR,2QBS,2VEU,2VEV,2VEW,2VEX,2VEY,2ZMM,2ZN7,3A5J,3CWE,3D9C,3EAX,
3EB1,3EU0,3I7Z,3I80,3SME,4BJO,4I8N,4QBW,4Y14,5K9V,5K9W,5KA0,5KA1,5T19,6B90,6NTP,6W30,7KEY,7KLX,7LFO,7MN9,7MNA,8DU7,8G65,8G67,8G68,8G69,8G6A,8SKL

> <UniProt (SwissProt) Recommended Name of Target Chain>
Tyrosine-protein phosphatase non-receptor type 1

> <UniProt (SwissProt) Entry Name of Target Chain>
PTN1_HUMAN

> <UniProt (SwissProt) Primary ID of Target Chain>
P18031

> <UniProt (SwissProt) Secondary ID(s) of Target Chain>
Q5TGD8 Q9BQV9 Q9NQQ4

$$$$
Molecule
  SciTegic10242319433D

 82 88  0  0  0  0            999 V2000
   -0.6977   -5.9217    0.0029 C   0  0
   -0.1410   -4.6590    0.0174 C   0  0
   -2.3993   -5.7814   -0.0372 S   0  0
   -1.2809   -3.5796   -0.0080 C   0  0
    7.5015   -1.7011    0.1030 C   0  0
   -2.5731   -4.1685   -0.0338 C   0  0
    8.4326   -2.9050    0.2138 C   0  0
    6.1717   -1.8991    0.1080 C   0  0
    9.8804   -2.7454    0.1267 O   0  0
   10.8226   -3.9350    0.1725 C   0  0  1  0  0  0
   10.6081   -4.9960   -0.9752 C   0  0
    5.6202   -3.2704    0.2254 C   0  0
    1.3986   -4.2840    0.0618 C   0  0
    0.0407   -7.2977    0.0168 C   0  0
    8.0153   -0.2851    0.0158 C   0  0
    4.1642   -3.5707    0.1788 C   0  0
   12.2968   -3.3486    0.1042 C   0  0
    7.8834   -4.1073    0.3629 C   0  0
    9.4846   -5.2660   -1.4047 O   0  0
    6.4494   -4.2967    0.3634 C   0  0
    1.7996   -3.0041    0.0108 C   0  0
    2.4567   -5.3047    0.1782 C   0  0
    3.7441   -4.9690    0.2368 C   0  0
    3.2374   -2.6226    0.0633 C   0  0
    9.3198   -0.0074    0.0554 C   0  0
    7.0551    0.8274   -0.0829 C   0  0
   11.6771   -5.6972   -1.5137 O   0  0
    8.9178    2.3894   -0.0828 C   0  0
   -0.8078   -8.6031    0.0087 C   0  0
   13.4906   -4.3154    0.2453 C   0  0
    7.4833    2.0907   -0.1295 C   0  0
    9.7925    1.3853    0.0019 C   0  0
   -1.1681   -2.2531    0.0003 C   0  0
    9.3498    3.7336   -0.1242 O   0  0
   -3.7055   -3.4789   -0.0494 C   0  0
   -0.1689   -9.7742    0.0061 C   0  0
   13.3727   -5.5331    0.7816 C   0  0
   14.8083   -3.8687   -0.2389 C   0  0
   -2.2806   -8.6112    0.0062 C   0  0
   10.7827    3.8349   -0.0572 C   0  0
   -2.4014   -1.4331   -0.0192 C   0  0
   -3.6058   -2.0170   -0.0415 C   0  0
   15.8694   -4.6701   -0.1573 C   0  0
   -2.9634   -9.7543    0.0010 C   0  0
   -0.9218  -11.0386    0.0002 C   0  0
   14.5480   -6.4158    0.8719 C   0  0
   -2.2530  -11.0269   -0.0021 C   0  0
   15.7332   -6.0050    0.4218 C   0  0
    5.4961   -1.0477    0.0252 H   0  0
   10.6964   -4.4364    1.1321 H   0  0
    0.6814   -7.3265   -0.8645 H   0  0
    0.6569   -7.3216    0.9156 H   0  0
   12.3993   -2.8526   -0.8610 H   0  0
   12.3854   -2.6122    0.9029 H   0  0
    8.5322   -4.9741    0.4883 H   0  0
    6.0425   -5.3013    0.4793 H   0  0
    1.0482   -2.2188   -0.0717 H   0  0
    2.1786   -6.3579    0.2172 H   0  0
    4.4977   -5.7511    0.3297 H   0  0
    3.5293   -1.5739    0.0075 H   0  0
   10.0425   -0.8201    0.1280 H   0  0
    5.9861    0.6174   -0.1182 H   0  0
   12.3632   -5.0221   -1.9334 H   0  0
    6.7623    2.9049   -0.2026 H   0  0
   10.8613    1.5973    0.0316 H   0  0
   -0.1866   -1.7794    0.0210 H   0  0
   -4.6733   -3.9802   -0.0674 H   0  0
    0.9209   -9.7947    0.0085 H   0  0
   12.4060   -5.8737    1.1526 H   0  0
   14.9161   -2.8727   -0.6683 H   0  0
   -2.8212   -7.6647    0.0086 H   0  0
   11.0753    4.8843   -0.0918 H   0  0
   11.2247    3.3070   -0.9022 H   0  0
   11.1358    3.3903    0.8733 H   0  0
   -2.3278   -0.3456   -0.0153 H   0  0
   -4.5091   -1.4072   -0.0537 H   0  0
   16.8387   -4.3303   -0.5222 H   0  0
   -4.0533   -9.7383   -0.0008 H   0  0
   -0.3874  -11.9886   -0.0023 H   0  0
   14.4481   -7.4094    1.3087 H   0  0
   -2.8090  -11.9644   -0.0064 H   0  0
   16.5995   -6.6635    0.4855 H   0  0
  2  1  2  0
  3  1  1  0
  4  2  1  0
  5  8  2  0
  6  3  1  0
  7 18  2  0
  8 12  1  0
  9  7  1  0
  9 10  1  0
 11 10  1  0
 12 16  1  0
 13  2  1  0
 14  1  1  0
 15  5  1  0
 16 23  1  0
 17 10  1  0
 18 20  1  0
 19 11  2  0
 20 12  2  0
 21 13  2  0
 22 13  1  0
 23 22  2  0
 24 21  1  0
 25 15  2  0
 26 15  1  0
 27 11  1  0
 28 31  1  0
 29 14  1  0
 30 17  1  0
 31 26  2  0
 32 25  1  0
 33  4  2  0
 34 28  1  0
 35  6  2  0
 36 29  2  0
 37 30  2  0
 38 30  1  0
 39 29  1  0
 40 34  1  0
 41 33  1  0
 42 35  1  0
 43 38  2  0
 44 39  2  0
 45 36  1  0
 46 37  1  0
 47 44  1  0
 48 43  1  0
  4  6  1  0
 41 42  2  0
 24 16  2  0
 45 47  2  0
  7  5  1  0
 32 28  2  0
 46 48  2  0
  8 49  1  0
 10 50  1  0
 14 51  1  0
 14 52  1  0
 17 53  1  0
 17 54  1  0
 18 55  1  0
 20 56  1  0
 21 57  1  0
 22 58  1  0
 23 59  1  0
 24 60  1  0
 25 61  1  0
 26 62  1  0
 27 63  1  0
 31 64  1  0
 32 65  1  0
 33 66  1  0
 35 67  1  0
 36 68  1  0
 37 69  1  0
 38 70  1  0
 39 71  1  0
 40 72  1  0
 40 73  1  0
 40 74  1  0
 41 75  1  0
 42 76  1  0
 43 77  1  0
 44 78  1  0
 45 79  1  0
 46 80  1  0
 47 81  1  0
 48 82  1  0
M  END
> <Name>
Molecule

> <Clean Energy>
48.3122

> <From>
www.bindingDB.org

> <BindingDB Reactant_set_id>
50154617

> <Ligand InChI>
InChI=1S/C43H34O4S/c1-46-35-23-20-32(21-24-35)37-28-34(22-25-38(37)47-39(43(44)45)26-29-10-4-2-5-11-29)31-16-18-33(19-17-31)42-36-14-8-9-15-40(36)48-41(42)27-30-12-6-3-7-13-30/h2-25,28,39H,26-27H2,1H3
,(H,44,45)

> <Ligand InChI Key>
CRMKKTGWCSAERD-UHFFFAOYSA-N

> <BindingDB MonomerID>
50086929

> <BindingDB Ligand Name>
2-[4-(2-Benzyl-benzo[b]thiophen-3-yl)-4''-methoxy-[1,1';3',1'']terphenyl-4'-yloxy]-3-phenyl-propionic acid::CHEMBL283567

> <Target Name>
Tyrosine-protein phosphatase non-receptor type 1

> <Target Source Organism According to Curator or DataSource>
Homo sapiens

> <IC50 (nM)>
53

> <Curation/DataSource>
ChEMBL

> <Article DOI>
10.1021/jm990560c

> <BindingDB Entry DOI>
10.7270/Q2W958FT

> <PMID>
10753467

> <Authors>
Malamas, MS; Sredy, J; Moxham, C; Katz, A; Xu, W; McDevitt, R; Adebayo, FO; Sawicki, DR; Seestaller, L; Sullivan, D; Taylor, JR

> <Institution>
Wyeth-Ayerst Research

> <Link to Ligand in BindingDB>
http://www.bindingdb.org/bind/chemsearch/marvin/MolStructure.jsp?monomerid=50086929

> <Link to Ligand-Target Pair in BindingDB>
http://www.bindingdb.org/jsp/dbsearch/PrimarySearch_ki.jsp?energyterm=kJ/mole&tag=pol&polymerid=2622&target=Tyrosine-protein+phosphatase+non-receptor+type+1&column=ki&startPg=0&Increment=50&submit=Sea
rch
http://www.bindingdb.org/jsp/dbsearch/PrimarySearch_ki.jsp?energyterm=kJ/mole&tag=r21&monomerid=50086929&enzyme=Tyrosine-protein+phosphatase+non-receptor+type+1&column=ki&startPg=0&Increment=50&submit
=Search

> <PubChem CID of Ligand>
22462599

> <PubChem SID of Ligand>
103986040

> <ChEMBL ID of Ligand>
CHEMBL283567

> <ZINC ID of Ligand>
ZINC28758457

> <Number of Protein Chains in Target (bigger than 1 implies a multichain complex)>
1

> <BindingDB Target Chain Sequence>
MEMEKEFEQIDKSGSWAAIYQDIRHEASDFPCRVAKLPKNKNRNRYRDVSPFDHSRIKLHQEDNDYINASLIKMEEAQRSYILTQGPLPNTCGHFWEMVWEQKSRGVVMLNRVMEKGSLKCAQYWPQKEEKEMIFEDTNLKLTLISEDIKSYYTVRQLELENLTTQETREILHFHYTTWPDFGVPESPASFLNFLFKVRE
SGSLSPEHGPVVVHCSAGIGRSGTFCLADTCLLLMDKRKDPSSVDIKKVLLEMRKFRMGLIQTADQLRFSYLAVIEGAKFIMGDSSVQDQWKELSHEDLEPPPEHIPPPPRPPKRILEPHNGKCREFFPNHQWVKEETQEDKDCPIKEEKGSPLNAAPYGIESMSQDTEVRSRVVGGSLRGAQAASPAKGEPSLPEKDED
HALSYWKPFLVNMCVATVLTAGAYLCYRFLFNSNT

> <PDB ID(s) of Target Chain>
1BZJ,1G7G,1GFY,1JF7,1KAK,1KAV,1LQF,1NL9,1NNY,1NO6,1NZ7,1OEM,1OEO,1OES,1OET,1OEU,1OEV,1ONY,1ONZ,1PH0,1PXH,1PYN,1Q1M,1Q6J,1Q6M,1Q6N,1Q6P,1Q6S,1Q6T,1QXK,1SUG,1T48,1T49,1T4J,1WAX,1XBO,2AZR,2B07,2BGD,2BGE,
2CM2,2CM3,2CM7,2CM8,2CMA,2CMB,2CMC,2CNE,2CNF,2CNG,2CNH,2CNI,2F6T,2F6V,2F6W,2F6Y,2F6Z,2F70,2F71,2FJN,2H4G,2H4K,2HB1,2HNP,2HNQ,2QBP,2QBQ,2QBR,2QBS,2VEU,2VEV,2VEW,2VEX,2VEY,2ZMM,2ZN7,3A5J,3CWE,3D9C,3EAX,
3EB1,3EU0,3I7Z,3I80,3SME,4BJO,4I8N,4QBW,4Y14,5K9V,5K9W,5KA0,5KA1,5T19,6B90,6NTP,6W30,7KEY,7KLX,7LFO,7MN9,7MNA,8DU7,8G65,8G67,8G68,8G69,8G6A,8SKL

> <UniProt (SwissProt) Recommended Name of Target Chain>
Tyrosine-protein phosphatase non-receptor type 1

> <UniProt (SwissProt) Entry Name of Target Chain>
PTN1_HUMAN

> <UniProt (SwissProt) Primary ID of Target Chain>
P18031

> <UniProt (SwissProt) Secondary ID(s) of Target Chain>
Q5TGD8 Q9BQV9 Q9NQQ4

$$$$
Molecule
  SciTegic10242319433D

 67 71  0  0  0  0            999 V2000
   -3.2281  -12.0586    0.2146 C   0  0
   -3.9409  -13.3466   -0.0071 C   0  0
   -3.1881  -14.4342   -0.2075 C   0  0
   -1.7555  -14.3760   -0.2114 C   0  0
   -1.1190  -13.2363   -0.0028 C   0  0
   -1.8896  -12.0063    0.2273 C   0  0
    0.3429  -13.2796   -0.0078 C   0  0
    0.9562  -14.5175   -0.4199 C   0  0
    2.2702  -14.6874   -0.4497 C   0  0
    3.1805  -13.5214   -0.0122 C   0  0
    2.5742  -12.3771    0.3374 C   0  0
    1.0987  -12.2454    0.3377 C   0  0
   -5.5010  -13.4563   -0.0118 C   0  0
   -7.6469  -14.2061   -0.0265 O   0  0
   -6.2819  -14.5616   -0.0347 C   0  0
   -7.7111  -12.8579    0.0006 C   0  0
   -6.4263  -12.3174    0.0182 C   0  0
   -6.2040  -11.0165    0.0379 C   0  0
   -7.3808  -10.1179    0.0497 C   0  0
   -8.6178  -10.6355    0.0348 C   0  0
   -8.8061  -12.0985    0.0080 C   0  0
    4.6530  -13.4779    0.0709 O   0  0
   -5.7983  -16.0348   -0.0582 C   0  0
   -6.8321  -17.1414   -0.0324 C   0  0
   -8.1427  -16.9013   -0.0138 C   0  0
   -9.0930  -18.0181    0.0102 C   0  0
   -6.3519  -18.5278   -0.0274 C   0  0
   -7.2135  -19.5413   -0.0051 C   0  0
   -8.6499  -19.2745    0.0143 C   0  0
    3.6380  -10.8918    0.8603 Br  0  0
    2.8274  -16.3857   -1.1220 Br  0  0
    5.5223  -14.6119   -0.2412 C   0  0  2  0  0  0
    5.3091  -15.8636    0.7384 C   0  0
    6.9340  -13.9955   -0.2215 C   0  0
    8.0822  -14.7197    0.0017 O   0  0
    7.0356  -12.7686   -0.3269 O   0  0
    5.9117  -17.2807    0.2948 C   0  0
    5.3822  -18.3697    1.2411 C   0  0
    7.4355  -17.4271    0.2128 C   0  0
   -3.8033  -11.1456    0.3686 H   0  0
   -3.6786  -15.3935   -0.3728 H   0  0
   -1.1821  -15.2858   -0.3892 H   0  0
   -1.3773  -11.0610    0.4066 H   0  0
    0.3141  -15.3461   -0.7187 H   0  0
    0.6349  -11.3007    0.6213 H   0  0
   -5.1897  -10.6176    0.0452 H   0  0
   -7.2418   -9.0370    0.0704 H   0  0
   -9.4847   -9.9749    0.0425 H   0  0
   -9.8022  -12.5410   -0.0051 H   0  0
   -5.2120  -16.1652   -0.9678 H   0  0
   -5.1566  -16.1754    0.8116 H   0  0
   -8.5086  -15.8746   -0.0166 H   0  0
  -10.1647  -17.8197    0.0248 H   0  0
   -5.2807  -18.7290   -0.0420 H   0  0
   -6.8487  -20.5684   -0.0013 H   0  0
   -9.3583  -20.1027    0.0320 H   0  0
    5.3067  -14.9360   -1.2594 H   0  0
    5.7610  -15.6054    1.6962 H   0  0
    4.2347  -15.9947    0.8666 H   0  0
    8.0316  -15.1746    0.9467 H   0  0
    5.5160  -17.4995   -0.6970 H   0  0
    5.7880  -19.3372    0.9455 H   0  0
    4.2940  -18.4009    1.1872 H   0  0
    5.6887  -18.1445    2.2626 H   0  0
    7.6874  -18.4404   -0.0999 H   0  0
    7.8732  -17.2301    1.1915 H   0  0
    7.8309  -16.7150   -0.5116 H   0  0
  4  5  2  0
 18 19  1  0
  9 10  1  0
 19 20  2  0
  2  3  2  0
 20 21  1  0
 21 16  2  0
 10 11  2  0
 10 22  1  0
  5  6  1  0
 15 23  1  0
 11 12  1  0
 23 24  1  0
 12  7  2  0
 24 25  2  0
  5  7  1  0
 25 26  1  0
 26 29  2  0
 13 17  1  0
 28 27  2  0
 27 24  1  0
 28 29  1  0
  6  1  2  0
  1  2  1  0
  3  4  1  0
 11 30  1  0
 16 14  1  0
  9 31  1  0
 14 15  1  0
 32 22  1  0
 15 13  2  0
 32 33  1  0
  2 13  1  0
 32 34  1  0
  7  8  1  0
 34 35  1  0
 34 36  2  0
 16 17  1  0
 33 37  1  0
  8  9  2  0
 37 38  1  0
 17 18  2  0
 37 39  1  0
  1 40  1  0
  3 41  1  0
  4 42  1  0
  6 43  1  0
  8 44  1  0
 12 45  1  0
 18 46  1  0
 19 47  1  0
 20 48  1  0
 21 49  1  0
 23 50  1  0
 23 51  1  0
 25 52  1  0
 26 53  1  0
 27 54  1  0
 28 55  1  0
 29 56  1  0
 32 57  1  0
 33 58  1  0
 33 59  1  0
 35 60  1  0
 37 61  1  0
 38 62  1  0
 38 63  1  0
 38 64  1  0
 39 65  1  0
 39 66  1  0
 39 67  1  0
M  END
> <Name>
Molecule

> <Clean Energy>
65.098

> <From>
www.bindingDB.org

> <BindingDB Reactant_set_id>
51015955

> <Ligand InChI>
InChI=1S/C33H28Br2O4/c1-20(2)16-30(33(36)37)39-32-26(34)18-24(19-27(32)35)22-12-14-23(15-13-22)31-25-10-6-7-11-28(25)38-29(31)17-21-8-4-3-5-9-21/h3-15,18-20,30H,16-17H2,1-2H3,(H,36,37)/t30-/m1/s1

> <Ligand InChI Key>
WLFFRCBEFRDVAS-SSEXGKCCSA-N

> <BindingDB MonomerID>
50416054

> <BindingDB Ligand Name>
CHEMBL1084870

> <Target Name>
Tyrosine-protein phosphatase non-receptor type 1

> <Target Source Organism According to Curator or DataSource>
Homo sapiens

> <IC50 (nM)>
53.7

> <Curation/DataSource>
ChEMBL

> <Article DOI>
10.1016/j.bmcl.2010.04.033

> <BindingDB Entry DOI>
10.7270/Q27D2WCC

> <PMID>
20452766

> <Authors>
Cheng, Y; Zhou, M; Tung, CH; Ji, M; Zhang, F

> <Institution>
Tsinghua University

> <Link to Ligand in BindingDB>
http://www.bindingdb.org/bind/chemsearch/marvin/MolStructure.jsp?monomerid=50416054

> <Link to Ligand-Target Pair in BindingDB>
http://www.bindingdb.org/jsp/dbsearch/PrimarySearch_ki.jsp?energyterm=kJ/mole&tag=pol&polymerid=2622&target=Tyrosine-protein+phosphatase+non-receptor+type+1&column=ki&startPg=0&Increment=50&submit=Sea
rch
http://www.bindingdb.org/jsp/dbsearch/PrimarySearch_ki.jsp?energyterm=kJ/mole&tag=r21&monomerid=50416054&enzyme=Tyrosine-protein+phosphatase+non-receptor+type+1&column=ki&startPg=0&Increment=50&submit
=Search

> <PubChem CID of Ligand>
9830938

> <PubChem SID of Ligand>
163365078

> <ChEMBL ID of Ligand>
CHEMBL1084870

> <ZINC ID of Ligand>
ZINC28758752

> <Number of Protein Chains in Target (bigger than 1 implies a multichain complex)>
1

> <BindingDB Target Chain Sequence>
MEMEKEFEQIDKSGSWAAIYQDIRHEASDFPCRVAKLPKNKNRNRYRDVSPFDHSRIKLHQEDNDYINASLIKMEEAQRSYILTQGPLPNTCGHFWEMVWEQKSRGVVMLNRVMEKGSLKCAQYWPQKEEKEMIFEDTNLKLTLISEDIKSYYTVRQLELENLTTQETREILHFHYTTWPDFGVPESPASFLNFLFKVRE
SGSLSPEHGPVVVHCSAGIGRSGTFCLADTCLLLMDKRKDPSSVDIKKVLLEMRKFRMGLIQTADQLRFSYLAVIEGAKFIMGDSSVQDQWKELSHEDLEPPPEHIPPPPRPPKRILEPHNGKCREFFPNHQWVKEETQEDKDCPIKEEKGSPLNAAPYGIESMSQDTEVRSRVVGGSLRGAQAASPAKGEPSLPEKDED
HALSYWKPFLVNMCVATVLTAGAYLCYRFLFNSNT

> <PDB ID(s) of Target Chain>
1BZJ,1G7G,1GFY,1JF7,1KAK,1KAV,1LQF,1NL9,1NNY,1NO6,1NZ7,1OEM,1OEO,1OES,1OET,1OEU,1OEV,1ONY,1ONZ,1PH0,1PXH,1PYN,1Q1M,1Q6J,1Q6M,1Q6N,1Q6P,1Q6S,1Q6T,1QXK,1SUG,1T48,1T49,1T4J,1WAX,1XBO,2AZR,2B07,2BGD,2BGE,
2CM2,2CM3,2CM7,2CM8,2CMA,2CMB,2CMC,2CNE,2CNF,2CNG,2CNH,2CNI,2F6T,2F6V,2F6W,2F6Y,2F6Z,2F70,2F71,2FJN,2H4G,2H4K,2HB1,2HNP,2HNQ,2QBP,2QBQ,2QBR,2QBS,2VEU,2VEV,2VEW,2VEX,2VEY,2ZMM,2ZN7,3A5J,3CWE,3D9C,3EAX,
3EB1,3EU0,3I7Z,3I80,3SME,4BJO,4I8N,4QBW,4Y14,5K9V,5K9W,5KA0,5KA1,5T19,6B90,6NTP,6W30,7KEY,7KLX,7LFO,7MN9,7MNA,8DU7,8G65,8G67,8G68,8G69,8G6A,8SKL

> <UniProt (SwissProt) Recommended Name of Target Chain>
Tyrosine-protein phosphatase non-receptor type 1

> <UniProt (SwissProt) Entry Name of Target Chain>
PTN1_HUMAN

> <UniProt (SwissProt) Primary ID of Target Chain>
P18031

> <UniProt (SwissProt) Secondary ID(s) of Target Chain>
Q5TGD8 Q9BQV9 Q9NQQ4

$$$$
Molecule
  SciTegic10242319433D

 81 86  0  0  0  0            999 V2000
   -4.4826   -2.8231   -0.0073 C   0  0
   -3.8873   -1.5766   -0.0027 C   0  0
   -6.1840   -2.6385    0.0095 S   0  0
    4.8787   -0.0889   -0.1982 C   0  0
    6.3697    0.2121   -0.1682 O   0  0
   -5.0028   -0.4668    0.0151 C   0  0
   -6.3157   -1.0229    0.0178 C   0  0
    4.0509    0.9514    0.0179 C   0  0
    4.2067   -1.4521   -0.4396 C   0  0
   13.8347   -1.6461   -0.1176 C   0  0
   14.7276   -2.6749   -0.0099 C   0  0
    2.0017   -0.4217   -0.1311 C   0  0
   12.3262   -1.8146   -0.2969 C   0  0
   14.4069   -4.1434   -0.0316 C   0  0
    7.2840   -1.7202    1.0464 C   0  0
    2.8753   -1.5552   -0.3961 C   0  0
    2.5515    0.7807    0.0515 C   0  0
    7.4167   -0.8671   -0.2629 C   0  0  2  0  0  0
   -2.3210   -1.2536   -0.0201 C   0  0
   -3.7806   -4.2164   -0.0195 C   0  0
    0.5017   -0.6632   -0.0890 C   0  0
   11.8221   -2.9326   -0.3777 O   0  0
   13.2639   -4.5868   -0.1393 O   0  0
    6.6601   -1.2078    1.9814 O   0  0
   11.4650   -0.7752   -0.3653 N   0  0
   -1.8634    0.0060    0.0814 C   0  0
   -1.2964   -2.3129   -0.1658 C   0  0
    0.0093   -2.0368   -0.2035 C   0  0
   -0.3907    0.3206    0.0542 C   0  0
    4.7874    2.6790    0.3226 Br  0  0
    5.1257   -3.0592   -0.8818 Br  0  0
    8.8920   -0.1344   -0.3132 C   0  0
   15.4567   -5.0517    0.0848 O   0  0
    7.7204   -3.0972    1.2458 O   0  0
   -4.6612   -5.4969   -0.0106 C   0  0
   10.0578   -1.1758   -0.5223 C   0  0
   -4.8563    0.8565    0.0176 C   0  0
   14.3548   -0.2673   -0.0659 C   0  0
   16.1588   -2.3695    0.1585 C   0  0
   -7.4316   -0.3065    0.0230 C   0  0
    8.3201   -3.8066    0.1445 C   0  0
   -5.9944   -5.4643   -0.0052 C   0  0
   -3.9922   -6.8056   -0.0087 C   0  0
   -6.0767    1.7058    0.0260 C   0  0
   15.6561   -0.0221    0.0870 C   0  0
   16.5987   -1.1187    0.2020 C   0  0
   -7.2961    1.1516    0.0278 C   0  0
   -4.7058   -7.9323   -0.0019 C   0  0
   -6.7819   -6.6989    0.0024 C   0  0
   -6.1672   -7.8781    0.0039 C   0  0
    2.4230   -2.5321   -0.5667 H   0  0
    1.9126    1.6464    0.2263 H   0  0
    7.2592   -1.4849   -1.1469 H   0  0
   -3.1647   -4.2571   -0.9179 H   0  0
   -3.1413   -4.2609    0.8623 H   0  0
   11.7780    0.2465   -0.3102 H   0  0
   -2.5778    0.8225    0.1863 H   0  0
   -1.6185   -3.3512   -0.2448 H   0  0
    0.7237   -2.8515   -0.3220 H   0  0
   -0.0526    1.3523    0.1514 H   0  0
    8.9037    0.5781   -1.1381 H   0  0
    9.0554    0.3938    0.6261 H   0  0
   16.1307   -4.9118   -0.7081 H   0  0
    9.9550   -1.5570   -1.5383 H   0  0
    9.8838   -1.9835    0.1887 H   0  0
   -3.8639    1.3072    0.0136 H   0  0
   13.6609    0.5687   -0.1545 H   0  0
   16.8718   -3.1890    0.2492 H   0  0
   -8.4113   -0.7843    0.0236 H   0  0
    8.5860   -4.8146    0.4626 H   0  0
    9.2174   -3.2806   -0.1818 H   0  0
    7.6113   -3.8620   -0.6818 H   0  0
   -6.5067   -4.5022   -0.0064 H   0  0
   -2.9033   -6.8557   -0.0130 H   0  0
   -5.9780    2.7913    0.0307 H   0  0
   16.0135    1.0069    0.1258 H   0  0
   17.6628   -0.9161    0.3236 H   0  0
   -8.1843    1.7835    0.0328 H   0  0
   -4.1980   -8.8968   -0.0006 H   0  0
   -7.8709   -6.6514    0.0069 H   0  0
   -6.7495   -8.7995    0.0093 H   0  0
  2  1  2  0
  3  1  1  0
  4  8  2  0
  5  4  1  0
  6  2  1  0
  7  3  1  0
  8 17  1  0
  9 16  2  0
 10 13  1  0
 11 10  2  0
 12 21  1  0
 13 25  1  0
 14 11  1  0
 15 18  1  0
 16 12  1  0
 17 12  2  0
 18  5  1  0
 19  2  1  0
 20  1  1  0
 21 28  1  0
 22 13  2  0
 23 14  2  0
 24 15  2  0
 25 36  1  0
 26 19  2  0
 27 19  1  0
 28 27  2  0
 29 26  1  0
 30  8  1  0
 31  9  1  0
 32 18  1  0
 33 14  1  0
 34 15  1  0
 35 20  1  0
 36 32  1  0
 37  6  2  0
 38 10  1  0
 39 11  1  0
 40  7  2  0
 41 34  1  0
 42 35  2  0
 43 35  1  0
 44 37  1  0
 45 38  2  0
 46 45  1  0
 47 40  1  0
 48 43  2  0
 49 42  1  0
 50 48  1  0
  6  7  1  0
 44 47  2  0
 29 21  2  0
 49 50  2  0
  9  4  1  0
 39 46  2  0
 16 51  1  0
 17 52  1  0
 18 53  1  0
 20 54  1  0
 20 55  1  0
 25 56  1  0
 26 57  1  0
 27 58  1  0
 28 59  1  0
 29 60  1  0
 32 61  1  0
 32 62  1  0
 33 63  1  0
 36 64  1  0
 36 65  1  0
 37 66  1  0
 38 67  1  0
 39 68  1  0
 40 69  1  0
 41 70  1  0
 41 71  1  0
 41 72  1  0
 42 73  1  0
 43 74  1  0
 44 75  1  0
 45 76  1  0
 46 77  1  0
 47 78  1  0
 48 79  1  0
 49 80  1  0
 50 81  1  0
M  END
> <Name>
Molecule

> <Clean Energy>
71.1913

> <From>
www.bindingDB.org

> <BindingDB Reactant_set_id>
50154648

> <Ligand InChI>
InChI=1S/C40H31Br2NO6S/c1-48-40(47)33(19-20-43-38(44)28-11-5-6-12-29(28)39(45)46)49-37-31(41)22-27(23-32(37)42)25-15-17-26(18-16-25)36-30-13-7-8-14-34(30)50-35(36)21-24-9-3-2-4-10-24/h2-18,22-23,33H,1
9-21H2,1H3,(H,43,44)(H,45,46)

> <Ligand InChI Key>
YRLJYLHQSJYDKP-UHFFFAOYSA-N

> <BindingDB MonomerID>
50086961

> <BindingDB Ligand Name>
CHEMBL25594::N-{3-[4'-(2-Benzyl-benzo[b]thiophen-3-yl)-3,5-dibromo-biphenyl-4-yloxy]-3-methoxycarbonyl-propyl}-phthalamic acid

> <Target Name>
Tyrosine-protein phosphatase non-receptor type 1

> <Target Source Organism According to Curator or DataSource>
Homo sapiens

> <IC50 (nM)>
54

> <Curation/DataSource>
ChEMBL

> <Article DOI>
10.1021/jm990560c

> <BindingDB Entry DOI>
10.7270/Q2W958FT

> <PMID>
10753467

> <Authors>
Malamas, MS; Sredy, J; Moxham, C; Katz, A; Xu, W; McDevitt, R; Adebayo, FO; Sawicki, DR; Seestaller, L; Sullivan, D; Taylor, JR

> <Institution>
Wyeth-Ayerst Research

> <Link to Ligand in BindingDB>
http://www.bindingdb.org/bind/chemsearch/marvin/MolStructure.jsp?monomerid=50086961

> <Link to Ligand-Target Pair in BindingDB>
http://www.bindingdb.org/jsp/dbsearch/PrimarySearch_ki.jsp?energyterm=kJ/mole&tag=pol&polymerid=2622&target=Tyrosine-protein+phosphatase+non-receptor+type+1&column=ki&startPg=0&Increment=50&submit=Sea
rch
http://www.bindingdb.org/jsp/dbsearch/PrimarySearch_ki.jsp?energyterm=kJ/mole&tag=r21&monomerid=50086961&enzyme=Tyrosine-protein+phosphatase+non-receptor+type+1&column=ki&startPg=0&Increment=50&submit
=Search

> <PubChem CID of Ligand>
10676857

> <PubChem SID of Ligand>
103986072

> <ChEMBL ID of Ligand>
CHEMBL25594

> <KEGG ID of Ligand>
C06374

> <ZINC ID of Ligand>
ZINC95608597

> <Number of Protein Chains in Target (bigger than 1 implies a multichain complex)>
1

> <BindingDB Target Chain Sequence>
MEMEKEFEQIDKSGSWAAIYQDIRHEASDFPCRVAKLPKNKNRNRYRDVSPFDHSRIKLHQEDNDYINASLIKMEEAQRSYILTQGPLPNTCGHFWEMVWEQKSRGVVMLNRVMEKGSLKCAQYWPQKEEKEMIFEDTNLKLTLISEDIKSYYTVRQLELENLTTQETREILHFHYTTWPDFGVPESPASFLNFLFKVRE
SGSLSPEHGPVVVHCSAGIGRSGTFCLADTCLLLMDKRKDPSSVDIKKVLLEMRKFRMGLIQTADQLRFSYLAVIEGAKFIMGDSSVQDQWKELSHEDLEPPPEHIPPPPRPPKRILEPHNGKCREFFPNHQWVKEETQEDKDCPIKEEKGSPLNAAPYGIESMSQDTEVRSRVVGGSLRGAQAASPAKGEPSLPEKDED
HALSYWKPFLVNMCVATVLTAGAYLCYRFLFNSNT

> <PDB ID(s) of Target Chain>
1BZJ,1G7G,1GFY,1JF7,1KAK,1KAV,1LQF,1NL9,1NNY,1NO6,1NZ7,1OEM,1OEO,1OES,1OET,1OEU,1OEV,1ONY,1ONZ,1PH0,1PXH,1PYN,1Q1M,1Q6J,1Q6M,1Q6N,1Q6P,1Q6S,1Q6T,1QXK,1SUG,1T48,1T49,1T4J,1WAX,1XBO,2AZR,2B07,2BGD,2BGE,
2CM2,2CM3,2CM7,2CM8,2CMA,2CMB,2CMC,2CNE,2CNF,2CNG,2CNH,2CNI,2F6T,2F6V,2F6W,2F6Y,2F6Z,2F70,2F71,2FJN,2H4G,2H4K,2HB1,2HNP,2HNQ,2QBP,2QBQ,2QBR,2QBS,2VEU,2VEV,2VEW,2VEX,2VEY,2ZMM,2ZN7,3A5J,3CWE,3D9C,3EAX,
3EB1,3EU0,3I7Z,3I80,3SME,4BJO,4I8N,4QBW,4Y14,5K9V,5K9W,5KA0,5KA1,5T19,6B90,6NTP,6W30,7KEY,7KLX,7LFO,7MN9,7MNA,8DU7,8G65,8G67,8G68,8G69,8G6A,8SKL

> <UniProt (SwissProt) Recommended Name of Target Chain>
Tyrosine-protein phosphatase non-receptor type 1

> <UniProt (SwissProt) Entry Name of Target Chain>
PTN1_HUMAN

> <UniProt (SwissProt) Primary ID of Target Chain>
P18031

> <UniProt (SwissProt) Secondary ID(s) of Target Chain>
Q5TGD8 Q9BQV9 Q9NQQ4

$$$$
Molecule
  SciTegic10242319433D

 67 71  0  0  0  0            999 V2000
    0.8269   -5.5310   -0.0331 C   0  0
    1.4322   -4.3106   -0.0075 C   0  0
    9.7881   -1.9289    0.0828 C   0  0
   -0.5725   -5.3791   -0.0302 O   0  0
   11.2479   -1.6373    0.0110 O   0  0
    0.3271   -3.3372    0.0111 C   0  0
   -0.8543   -4.0637   -0.0057 C   0  0
    8.7557   -1.1127    0.4475 C   0  0
    9.4439   -3.3416   -0.2699 C   0  0
    7.1093   -2.8694    0.0768 C   0  0
   11.8677   -0.3285    0.2742 C   0  0  1  0  0  0
   13.3822   -0.5896    0.2934 C   0  0
    8.1820   -3.7793   -0.2647 C   0  0
    7.3940   -1.6227    0.4089 C   0  0
    2.9521   -3.9646    0.0044 C   0  0
    1.5217   -6.9048   -0.0485 C   0  0
    5.6998   -3.2736    0.0534 C   0  0
   14.2015    0.2642   -0.0507 O   0  0
   11.4403    0.8422   -0.7258 C   0  0
    3.9076   -4.8912   -0.1532 C   0  0
    3.3858   -2.5727    0.2010 C   0  0
    4.6755   -2.2516    0.2330 C   0  0
    5.3380   -4.5377   -0.1388 C   0  0
    8.8566    0.7020    1.0254 Br  0  0
   10.8418   -4.5566   -0.7022 Br  0  0
   13.8429   -1.8665    0.5902 O   0  0
    0.6197   -8.1351   -0.0267 C   0  0
    0.3338   -2.0066    0.0297 C   0  0
   -2.0542   -3.4961   -0.0013 C   0  0
   11.6476    2.3387   -0.1945 C   0  0
    1.1941   -9.3372   -0.0211 C   0  0
   -0.8467   -8.0429   -0.0112 C   0  0
   13.0951    2.8232    0.0045 C   0  0
   10.9343    3.3208   -1.1362 C   0  0
   -0.9731   -1.3127    0.0370 C   0  0
   -2.1096   -2.0224    0.0227 C   0  0
   -1.5922   -9.1455    0.0070 C   0  0
    0.3754  -10.5511   -0.0007 C   0  0
   -0.9525  -10.4598    0.0124 C   0  0
   11.5752   -0.0238    1.2791 H   0  0
    7.9611   -4.8165   -0.5165 H   0  0
    6.5757   -0.9495    0.6643 H   0  0
    2.1278   -6.9570   -0.9529 H   0  0
    2.1693   -6.9558    0.8269 H   0  0
   12.0256    0.7297   -1.6385 H   0  0
   10.3822    0.7143   -0.9540 H   0  0
    3.6193   -5.9327   -0.2955 H   0  0
    2.6363   -1.7907    0.3226 H   0  0
    4.9699   -1.2147    0.3949 H   0  0
    6.0948   -5.3084   -0.2850 H   0  0
   13.5167   -2.1426    1.5493 H   0  0
    1.2694   -1.4474    0.0392 H   0  0
   -2.9640   -4.0963   -0.0149 H   0  0
   11.1516    2.4062    0.7737 H   0  0
    2.2811   -9.4177   -0.0320 H   0  0
   -1.3274   -7.0646   -0.0148 H   0  0
   13.0881    3.8512    0.3666 H   0  0
   13.6281    2.7766   -0.9451 H   0  0
   13.5953    2.1853    0.7332 H   0  0
   11.0754    4.3393   -0.7746 H   0  0
    9.8693    3.0899   -1.1639 H   0  0
   11.3513    3.2310   -2.1393 H   0  0
   -1.0114   -0.2235    0.0540 H   0  0
   -3.0727   -1.5119    0.0288 H   0  0
   -2.6794   -9.0684    0.0179 H   0  0
    0.8539  -11.5304    0.0039 H   0  0
   -1.5618  -11.3635    0.0271 H   0  0
  2  1  2  0
  3  8  2  0
  4  1  1  0
  5  3  1  0
  6  2  1  0
  7  4  1  0
  8 14  1  0
  9 13  2  0
 10 17  1  0
  5 11  1  0
 12 11  1  0
 13 10  1  0
 14 10  2  0
 15  2  1  0
 16  1  1  0
 17 22  1  0
 18 12  2  0
 19 11  1  0
 20 15  2  0
 21 15  1  0
 22 21  2  0
 23 20  1  0
 24  8  1  0
 25  9  1  0
 26 12  1  0
 27 16  1  0
 28  6  2  0
 29  7  2  0
 30 19  1  0
 31 27  2  0
 32 27  1  0
 33 30  1  0
 34 30  1  0
 35 28  1  0
 36 29  1  0
 37 32  2  0
 38 31  1  0
 39 37  1  0
  6  7  1  0
 35 36  2  0
 23 17  2  0
 38 39  2  0
  9  3  1  0
 11 40  1  0
 13 41  1  0
 14 42  1  0
 16 43  1  0
 16 44  1  0
 19 45  1  0
 19 46  1  0
 20 47  1  0
 21 48  1  0
 22 49  1  0
 23 50  1  0
 26 51  1  0
 28 52  1  0
 29 53  1  0
 30 54  1  0
 31 55  1  0
 32 56  1  0
 33 57  1  0
 33 58  1  0
 33 59  1  0
 34 60  1  0
 34 61  1  0
 34 62  1  0
 35 63  1  0
 36 64  1  0
 37 65  1  0
 38 66  1  0
 39 67  1  0
M  END
> <Name>
Molecule

> <Clean Energy>
56.3852

> <From>
www.bindingDB.org

> <BindingDB Reactant_set_id>
50154638

> <Ligand InChI>
InChI=1S/C33H28Br2O4/c1-20(2)16-30(33(36)37)39-32-26(34)18-24(19-27(32)35)22-12-14-23(15-13-22)31-25-10-6-7-11-28(25)38-29(31)17-21-8-4-3-5-9-21/h3-15,18-20,30H,16-17H2,1-2H3,(H,36,37)

> <Ligand InChI Key>
WLFFRCBEFRDVAS-UHFFFAOYSA-N

> <BindingDB MonomerID>
50086956

> <BindingDB Ligand Name>
2-[4'-(2-Benzyl-benzofuran-3-yl)-3,5-dibromo-biphenyl-4-yloxy]-4-methyl-pentanoic acid::CHEMBL282075

> <Target Name>
Tyrosine-protein phosphatase non-receptor type 1

> <Target Source Organism According to Curator or DataSource>
Homo sapiens

> <IC50 (nM)>
54

> <Curation/DataSource>
ChEMBL

> <Article DOI>
10.1021/jm990560c

> <BindingDB Entry DOI>
10.7270/Q2W958FT

> <PMID>
10753467

> <Authors>
Malamas, MS; Sredy, J; Moxham, C; Katz, A; Xu, W; McDevitt, R; Adebayo, FO; Sawicki, DR; Seestaller, L; Sullivan, D; Taylor, JR

> <Institution>
Wyeth-Ayerst Research

> <Link to Ligand in BindingDB>
http://www.bindingdb.org/bind/chemsearch/marvin/MolStructure.jsp?monomerid=50086956

> <Link to Ligand-Target Pair in BindingDB>
http://www.bindingdb.org/jsp/dbsearch/PrimarySearch_ki.jsp?energyterm=kJ/mole&tag=pol&polymerid=2622&target=Tyrosine-protein+phosphatase+non-receptor+type+1&column=ki&startPg=0&Increment=50&submit=Sea
rch
http://www.bindingdb.org/jsp/dbsearch/PrimarySearch_ki.jsp?energyterm=kJ/mole&tag=r21&monomerid=50086956&enzyme=Tyrosine-protein+phosphatase+non-receptor+type+1&column=ki&startPg=0&Increment=50&submit
=Search

> <PubChem CID of Ligand>
22462571

> <PubChem SID of Ligand>
103986067

> <ChEMBL ID of Ligand>
CHEMBL282075

> <ZINC ID of Ligand>
ZINC28758755

> <Number of Protein Chains in Target (bigger than 1 implies a multichain complex)>
1

> <BindingDB Target Chain Sequence>
MEMEKEFEQIDKSGSWAAIYQDIRHEASDFPCRVAKLPKNKNRNRYRDVSPFDHSRIKLHQEDNDYINASLIKMEEAQRSYILTQGPLPNTCGHFWEMVWEQKSRGVVMLNRVMEKGSLKCAQYWPQKEEKEMIFEDTNLKLTLISEDIKSYYTVRQLELENLTTQETREILHFHYTTWPDFGVPESPASFLNFLFKVRE
SGSLSPEHGPVVVHCSAGIGRSGTFCLADTCLLLMDKRKDPSSVDIKKVLLEMRKFRMGLIQTADQLRFSYLAVIEGAKFIMGDSSVQDQWKELSHEDLEPPPEHIPPPPRPPKRILEPHNGKCREFFPNHQWVKEETQEDKDCPIKEEKGSPLNAAPYGIESMSQDTEVRSRVVGGSLRGAQAASPAKGEPSLPEKDED
HALSYWKPFLVNMCVATVLTAGAYLCYRFLFNSNT

> <PDB ID(s) of Target Chain>
1BZJ,1G7G,1GFY,1JF7,1KAK,1KAV,1LQF,1NL9,1NNY,1NO6,1NZ7,1OEM,1OEO,1OES,1OET,1OEU,1OEV,1ONY,1ONZ,1PH0,1PXH,1PYN,1Q1M,1Q6J,1Q6M,1Q6N,1Q6P,1Q6S,1Q6T,1QXK,1SUG,1T48,1T49,1T4J,1WAX,1XBO,2AZR,2B07,2BGD,2BGE,
2CM2,2CM3,2CM7,2CM8,2CMA,2CMB,2CMC,2CNE,2CNF,2CNG,2CNH,2CNI,2F6T,2F6V,2F6W,2F6Y,2F6Z,2F70,2F71,2FJN,2H4G,2H4K,2HB1,2HNP,2HNQ,2QBP,2QBQ,2QBR,2QBS,2VEU,2VEV,2VEW,2VEX,2VEY,2ZMM,2ZN7,3A5J,3CWE,3D9C,3EAX,
3EB1,3EU0,3I7Z,3I80,3SME,4BJO,4I8N,4QBW,4Y14,5K9V,5K9W,5KA0,5KA1,5T19,6B90,6NTP,6W30,7KEY,7KLX,7LFO,7MN9,7MNA,8DU7,8G65,8G67,8G68,8G69,8G6A,8SKL

> <UniProt (SwissProt) Recommended Name of Target Chain>
Tyrosine-protein phosphatase non-receptor type 1

> <UniProt (SwissProt) Entry Name of Target Chain>
PTN1_HUMAN

> <UniProt (SwissProt) Primary ID of Target Chain>
P18031

> <UniProt (SwissProt) Secondary ID(s) of Target Chain>
Q5TGD8 Q9BQV9 Q9NQQ4

$$$$
Molecule
  SciTegic10242319433D

 81 87  0  0  0  0            999 V2000
   -2.7624  -11.3149    0.0302 C   0  0
   -3.4757  -12.6263    0.0281 C   0  0
   -2.7180  -13.7258    0.0506 C   0  0
   -1.2717  -13.6698    0.0771 C   0  0
   -0.6354  -12.5076    0.0809 C   0  0
   -1.4214  -11.2594    0.0543 C   0  0
    0.8479  -12.5301    0.1039 C   0  0
    1.5136  -13.8260    0.1475 C   0  0
    2.8398  -13.9103    0.1561 C   0  0
    3.6831  -12.7026    0.1090 C   0  0
    3.0743  -11.4987    0.0839 C   0  0
    1.5817  -11.4176    0.0828 C   0  0
   -5.0461  -12.7269    0.0063 C   0  0
   -7.1962  -13.4820   -0.0219 O   0  0
   -5.8333  -13.8405   -0.0086 C   0  0
   -7.2688  -12.1361   -0.0138 C   0  0
   -5.9839  -11.5958    0.0019 C   0  0
   -5.7691  -10.2869    0.0126 C   0  0
   -6.9564   -9.3980    0.0070 C   0  0
   -8.1903   -9.9230   -0.0073 C   0  0
   -8.3669  -11.3872   -0.0185 C   0  0
    5.1336  -12.7561    0.0940 O   0  0
   -5.3536  -15.3105   -0.0109 C   0  0
   -6.4013  -16.4105   -0.0075 C   0  0
   -7.7099  -16.1590   -0.0029 C   0  0
   -8.6722  -17.2658    0.0017 C   0  0
   -8.2418  -18.5263    0.0019 C   0  0
   -6.8077  -18.8066   -0.0029 C   0  0
   -5.9353  -17.8017   -0.0074 C   0  0
    5.9092  -14.0037    0.2665 C   0  0  2  0  0  0
    7.3454  -13.5223    0.0839 C   0  0
    3.8790  -10.1831    0.0932 C   0  0
    5.5729  -15.2262   -0.6859 C   0  0
    6.2982  -16.5537   -0.3469 C   0  0
    8.2298  -14.2087   -0.7478 O   0  0
    7.6678  -12.4112    0.5179 O   0  0
    5.8777  -17.6742   -0.9340 C   0  0
    6.5146  -18.9621   -0.6276 C   0  0
    7.5216  -19.0226    0.2415 C   0  0
    7.9900  -17.8046    0.8979 C   0  0
    7.4093  -16.6368    0.6279 C   0  0
    5.1298  -10.0676   -0.7661 C   0  0
    5.5540   -8.6441   -0.3678 C   0  0
    4.2006   -7.8540   -0.2713 C   0  0
    3.0951   -8.9526   -0.3131 C   0  0
   -3.3383  -10.3897    0.0120 H   0  0
   -3.2061  -14.7004    0.0491 H   0  0
   -0.6983  -14.5966    0.0942 H   0  0
   -0.9144  -10.2944    0.0543 H   0  0
    0.9162  -14.7374    0.1733 H   0  0
    3.3129  -14.8913    0.1989 H   0  0
    1.0912  -10.4444    0.0647 H   0  0
   -4.7581   -9.8798    0.0250 H   0  0
   -6.8258   -8.3159    0.0145 H   0  0
   -9.0617   -9.2683   -0.0106 H   0  0
   -9.3594  -11.8377   -0.0303 H   0  0
   -4.7433  -15.4492   -0.9033 H   0  0
   -4.7368  -15.4498    0.8770 H   0  0
   -8.0658  -15.1287   -0.0026 H   0  0
   -9.7419  -17.0564    0.0049 H   0  0
   -8.9583  -19.3477    0.0055 H   0  0
   -6.4530  -19.8372   -0.0027 H   0  0
   -4.8661  -18.0138   -0.0111 H   0  0
    5.7918  -14.3357    1.2980 H   0  0
    4.1957  -10.0217    1.1236 H   0  0
    4.4993  -15.4072   -0.6338 H   0  0
    5.8455  -14.9446   -1.7030 H   0  0
    8.3436  -15.1935   -0.4016 H   0  0
    5.0544  -17.6346   -1.6473 H   0  0
    6.1616  -19.8716   -1.1137 H   0  0
    7.9954  -19.9790    0.4626 H   0  0
    8.8148  -17.8515    1.6089 H   0  0
    7.7556  -15.7332    1.1296 H   0  0
    5.8817  -10.8096   -0.4975 H   0  0
    4.9050  -10.1459   -1.8298 H   0  0
    6.0687   -8.6484    0.5930 H   0  0
    6.2035   -8.2075   -1.1266 H   0  0
    4.1493   -7.2929    0.6618 H   0  0
    4.0944   -7.1701   -1.1134 H   0  0
    2.2942   -8.7388    0.3947 H   0  0
    2.6772   -9.0591   -1.3142 H   0  0
 21 16  2  0
 10 11  2  0
 10 22  1  0
  5  6  1  0
 15 23  1  0
 11 12  1  0
 23 24  1  0
 12  7  2  0
 24 25  2  0
  5  7  1  0
 25 26  1  0
 13 17  1  0
 26 27  2  0
  6  1  2  0
 27 28  1  0
  1  2  1  0
 28 29  2  0
 29 24  1  0
  3  4  1  0
 30 22  1  0
 16 14  1  0
 30 31  1  0
 14 15  1  0
 11 32  1  0
 15 13  2  0
 30 33  1  0
  2 13  1  0
 33 34  1  0
  7  8  1  0
 31 35  1  0
 31 36  2  0
 16 17  1  0
 34 37  2  0
  8  9  2  0
 37 38  1  0
 17 18  2  0
 38 39  2  0
  4  5  2  0
 39 40  1  0
 18 19  1  0
 40 41  2  0
 41 34  1  0
 32 42  1  0
  9 10  1  0
 19 20  2  0
  2  3  2  0
 20 21  1  0
 42 43  1  0
 43 44  1  0
 44 45  1  0
 45 32  1  0
  1 46  1  0
  3 47  1  0
  4 48  1  0
  6 49  1  0
  8 50  1  0
  9 51  1  0
 12 52  1  0
 18 53  1  0
 19 54  1  0
 20 55  1  0
 21 56  1  0
 23 57  1  0
 23 58  1  0
 25 59  1  0
 26 60  1  0
 27 61  1  0
 28 62  1  0
 29 63  1  0
 30 64  1  0
 32 65  1  0
 33 66  1  0
 33 67  1  0
 35 68  1  0
 37 69  1  0
 38 70  1  0
 39 71  1  0
 40 72  1  0
 41 73  1  0
 42 74  1  0
 42 75  1  0
 43 76  1  0
 43 77  1  0
 44 78  1  0
 44 79  1  0
 45 80  1  0
 45 81  1  0
M  END
> <Name>
Molecule

> <Clean Energy>
77.5116

> <From>
www.bindingDB.org

> <BindingDB Reactant_set_id>
51015931

> <Ligand InChI>
InChI=1S/C41H36O4/c42-41(43)39(26-29-13-5-2-6-14-29)45-37-24-23-33(27-35(37)31-15-7-8-16-31)30-19-21-32(22-20-30)40-34-17-9-10-18-36(34)44-38(40)25-28-11-3-1-4-12-28/h1-6,9-14,17-24,27,31,39H,7-8,15-1
6,25-26H2,(H,42,43)/t39-/m0/s1

> <Ligand InChI Key>
INPDHHOBVPLGRM-KDXMTYKHSA-N

> <BindingDB MonomerID>
50416046

> <BindingDB Ligand Name>
CHEMBL1086230

> <Target Name>
Tyrosine-protein phosphatase non-receptor type 1

> <Target Source Organism According to Curator or DataSource>
Homo sapiens

> <IC50 (nM)>
54.95

> <Curation/DataSource>
ChEMBL

> <Article DOI>
10.1016/j.bmcl.2010.04.033

> <BindingDB Entry DOI>
10.7270/Q27D2WCC

> <PMID>
20452766

> <Authors>
Cheng, Y; Zhou, M; Tung, CH; Ji, M; Zhang, F

> <Institution>
Tsinghua University

> <Link to Ligand in BindingDB>
http://www.bindingdb.org/bind/chemsearch/marvin/MolStructure.jsp?monomerid=50416046

> <Link to Ligand-Target Pair in BindingDB>
http://www.bindingdb.org/jsp/dbsearch/PrimarySearch_ki.jsp?energyterm=kJ/mole&tag=pol&polymerid=2622&target=Tyrosine-protein+phosphatase+non-receptor+type+1&column=ki&startPg=0&Increment=50&submit=Sea
rch
http://www.bindingdb.org/jsp/dbsearch/PrimarySearch_ki.jsp?energyterm=kJ/mole&tag=r21&monomerid=50416046&enzyme=Tyrosine-protein+phosphatase+non-receptor+type+1&column=ki&startPg=0&Increment=50&submit
=Search

> <PubChem CID of Ligand>
10507672

> <PubChem SID of Ligand>
163365070

> <ChEMBL ID of Ligand>
CHEMBL1086230

> <ZINC ID of Ligand>
ZINC28757956

> <Number of Protein Chains in Target (bigger than 1 implies a multichain complex)>
1

> <BindingDB Target Chain Sequence>
MEMEKEFEQIDKSGSWAAIYQDIRHEASDFPCRVAKLPKNKNRNRYRDVSPFDHSRIKLHQEDNDYINASLIKMEEAQRSYILTQGPLPNTCGHFWEMVWEQKSRGVVMLNRVMEKGSLKCAQYWPQKEEKEMIFEDTNLKLTLISEDIKSYYTVRQLELENLTTQETREILHFHYTTWPDFGVPESPASFLNFLFKVRE
SGSLSPEHGPVVVHCSAGIGRSGTFCLADTCLLLMDKRKDPSSVDIKKVLLEMRKFRMGLIQTADQLRFSYLAVIEGAKFIMGDSSVQDQWKELSHEDLEPPPEHIPPPPRPPKRILEPHNGKCREFFPNHQWVKEETQEDKDCPIKEEKGSPLNAAPYGIESMSQDTEVRSRVVGGSLRGAQAASPAKGEPSLPEKDED
HALSYWKPFLVNMCVATVLTAGAYLCYRFLFNSNT

> <PDB ID(s) of Target Chain>
1BZJ,1G7G,1GFY,1JF7,1KAK,1KAV,1LQF,1NL9,1NNY,1NO6,1NZ7,1OEM,1OEO,1OES,1OET,1OEU,1OEV,1ONY,1ONZ,1PH0,1PXH,1PYN,1Q1M,1Q6J,1Q6M,1Q6N,1Q6P,1Q6S,1Q6T,1QXK,1SUG,1T48,1T49,1T4J,1WAX,1XBO,2AZR,2B07,2BGD,2BGE,
2CM2,2CM3,2CM7,2CM8,2CMA,2CMB,2CMC,2CNE,2CNF,2CNG,2CNH,2CNI,2F6T,2F6V,2F6W,2F6Y,2F6Z,2F70,2F71,2FJN,2H4G,2H4K,2HB1,2HNP,2HNQ,2QBP,2QBQ,2QBR,2QBS,2VEU,2VEV,2VEW,2VEX,2VEY,2ZMM,2ZN7,3A5J,3CWE,3D9C,3EAX,
3EB1,3EU0,3I7Z,3I80,3SME,4BJO,4I8N,4QBW,4Y14,5K9V,5K9W,5KA0,5KA1,5T19,6B90,6NTP,6W30,7KEY,7KLX,7LFO,7MN9,7MNA,8DU7,8G65,8G67,8G68,8G69,8G6A,8SKL

> <UniProt (SwissProt) Recommended Name of Target Chain>
Tyrosine-protein phosphatase non-receptor type 1

> <UniProt (SwissProt) Entry Name of Target Chain>
PTN1_HUMAN

> <UniProt (SwissProt) Primary ID of Target Chain>
P18031

> <UniProt (SwissProt) Secondary ID(s) of Target Chain>
Q5TGD8 Q9BQV9 Q9NQQ4

$$$$
Molecule
  SciTegic10242319433D

 81 87  0  0  0  0            999 V2000
    0.4965   -6.4638    0.0054 C   0  0
    1.0952   -5.2325    0.0139 C   0  0
   -0.9051   -6.3187    0.0066 O   0  0
   -0.0248   -4.2747    0.0172 C   0  0
    8.4025   -1.8339    0.0998 C   0  0
   -1.2001   -5.0106    0.0094 C   0  0
    9.5543   -2.8398   -0.2104 C   0  0
    7.1430   -2.2812    0.1375 C   0  0
   11.0416   -2.6070   -0.3530 O   0  0
   11.7525   -1.3058   -0.2174 C   0  0  1  0  0  0
   13.2532   -1.5947   -0.1823 C   0  0
    6.8049   -3.6815   -0.0772 C   0  0
    2.6206   -4.8632    0.0093 C   0  0
    1.1918   -7.8415    0.0001 C   0  0
    5.3734   -4.1051   -0.0280 C   0  0
   11.4093   -0.1724   -1.2701 C   0  0
    9.1878   -4.1157   -0.3891 C   0  0
   14.0659   -0.7915   -0.6563 O   0  0
    7.7763   -4.5578   -0.3155 C   0  0
    3.5915   -5.7783   -0.0957 C   0  0
    3.0391   -3.4458    0.1130 C   0  0
    8.5793   -0.3634    0.3848 C   0  0
    5.0250   -5.3889   -0.1228 C   0  0
    4.3263   -3.0947    0.1017 C   0  0
   13.7100   -2.7964    0.3442 O   0  0
    0.2657   -9.0730    0.0006 C   0  0
   11.8045    1.2559   -0.7970 C   0  0
   -0.0337   -2.9418    0.0172 C   0  0
   -2.4055   -4.4584    0.0019 C   0  0
    9.0850   -0.0978    1.7953 C   0  0
    7.2906    0.4270    0.4303 C   0  0
   12.5601    1.4640    0.2864 C   0  0
   11.2619    2.4193   -1.5138 C   0  0
   -1.0644   -8.9700   -0.0009 C   0  0
    0.8738  -10.4090    0.0025 C   0  0
   -1.3500   -2.2642    0.0115 C   0  0
   -2.4786   -2.9862    0.0038 C   0  0
    7.8495    1.8016    0.8568 C   0  0
    9.0121    1.4462    1.8462 C   0  0
    0.1076  -11.4998    0.0023 C   0  0
   12.8705    2.8237    0.7365 C   0  0
   11.5257    3.6569   -1.0916 C   0  0
   -1.9087  -10.1665   -0.0010 C   0  0
   -1.3499  -11.3740    0.0004 C   0  0
   12.3723    3.8701    0.0831 C   0  0
    6.3398   -1.5717    0.3362 H   0  0
   11.4896   -0.9089    0.7631 H   0  0
    1.8154   -7.8953   -0.8923 H   0  0
    1.8214   -7.8991    0.8880 H   0  0
   11.9427   -0.3888   -2.1957 H   0  0
   10.3355   -0.1889   -1.4565 H   0  0
    9.9587   -4.8577   -0.5969 H   0  0
    7.5317   -5.6104   -0.4578 H   0  0
    3.3246   -6.8329   -0.1629 H   0  0
    2.2772   -2.6713    0.2006 H   0  0
    9.2602    0.0772   -0.3434 H   0  0
    5.7943   -6.1549   -0.2205 H   0  0
    4.5993   -2.0432    0.1902 H   0  0
   13.4098   -2.8762    1.3472 H   0  0
    0.8949   -2.3712    0.0214 H   0  0
   -3.3079   -5.0697   -0.0054 H   0  0
    8.4389   -0.5543    2.5451 H   0  0
   10.1061   -0.4553    1.9287 H   0  0
    6.8057    0.4702   -0.5450 H   0  0
    6.5934    0.0257    1.1658 H   0  0
   12.9503    0.6112    0.8420 H   0  0
   10.6398    2.2695   -2.3963 H   0  0
   -1.5281   -7.9836   -0.0021 H   0  0
    1.9591  -10.5098    0.0040 H   0  0
   -1.4010   -1.1754    0.0135 H   0  0
   -3.4474   -2.4867   -0.0010 H   0  0
    8.2284    2.3503   -0.0054 H   0  0
    7.0827    2.3936    1.3565 H   0  0
    8.7820    1.7904    2.8545 H   0  0
    9.9514    1.8897    1.5159 H   0  0
    0.5682  -12.4877    0.0037 H   0  0
   13.5092    2.9777    1.6062 H   0  0
   11.1092    4.5125   -1.6234 H   0  0
   -2.9942  -10.0680   -0.0022 H   0  0
   -1.9758  -12.2664    0.0001 H   0  0
   12.5938    4.8824    0.4214 H   0  0
  2  1  2  0
  3  1  1  0
  4  2  1  0
  5  8  2  0
  6  3  1  0
  7 17  2  0
  8 12  1  0
  9  7  1  0
  9 10  1  0
 11 10  1  0
 12 15  1  0
 13  2  1  0
 14  1  1  0
 15 24  1  0
 16 10  1  0
 17 19  1  0
 18 11  2  0
 19 12  2  0
 20 13  2  0
 21 13  1  0
 22  5  1  0
 23 20  1  0
 24 21  2  0
 25 11  1  0
 26 14  1  0
 27 16  1  0
 28  4  2  0
 29  6  2  0
 30 22  1  0
 31 22  1  0
 32 27  2  0
 33 27  1  0
 34 26  2  0
 35 26  1  0
 36 28  1  0
 37 29  1  0
 38 31  1  0
 39 30  1  0
 40 35  2  0
 41 32  1  0
 42 33  2  0
 43 34  1  0
 44 40  1  0
 45 42  1  0
  4  6  1  0
 36 37  2  0
 23 15  2  0
 43 44  2  0
  5  7  1  0
 39 38  1  0
 41 45  2  0
  8 46  1  0
 10 47  1  0
 14 48  1  0
 14 49  1  0
 16 50  1  0
 16 51  1  0
 17 52  1  0
 19 53  1  0
 20 54  1  0
 21 55  1  0
 22 56  1  0
 23 57  1  0
 24 58  1  0
 25 59  1  0
 28 60  1  0
 29 61  1  0
 30 62  1  0
 30 63  1  0
 31 64  1  0
 31 65  1  0
 32 66  1  0
 33 67  1  0
 34 68  1  0
 35 69  1  0
 36 70  1  0
 37 71  1  0
 38 72  1  0
 38 73  1  0
 39 74  1  0
 39 75  1  0
 40 76  1  0
 41 77  1  0
 42 78  1  0
 43 79  1  0
 44 80  1  0
 45 81  1  0
M  END
> <Name>
Molecule

> <Clean Energy>
77.7367

> <From>
www.bindingDB.org

> <BindingDB Reactant_set_id>
50154641

> <Ligand InChI>
InChI=1S/C41H36O4/c42-41(43)39(26-29-13-5-2-6-14-29)45-37-24-23-33(27-35(37)31-15-7-8-16-31)30-19-21-32(22-20-30)40-34-17-9-10-18-36(34)44-38(40)25-28-11-3-1-4-12-28/h1-6,9-14,17-24,27,31,39H,7-8,15-1
6,25-26H2,(H,42,43)

> <Ligand InChI Key>
INPDHHOBVPLGRM-UHFFFAOYSA-N

> <BindingDB MonomerID>
50086957

> <BindingDB Ligand Name>
2-[4'-(2-Benzyl-benzofuran-3-yl)-3-cyclopentyl-biphenyl-4-yloxy]-3-phenyl-propionic acid::CHEMBL25231

> <Target Name>
Tyrosine-protein phosphatase non-receptor type 1

> <Target Source Organism According to Curator or DataSource>
Homo sapiens

> <IC50 (nM)>
55

> <Curation/DataSource>
ChEMBL

> <Article DOI>
10.1021/jm990560c

> <BindingDB Entry DOI>
10.7270/Q2W958FT

> <PMID>
10753467

> <Authors>
Malamas, MS; Sredy, J; Moxham, C; Katz, A; Xu, W; McDevitt, R; Adebayo, FO; Sawicki, DR; Seestaller, L; Sullivan, D; Taylor, JR

> <Institution>
Wyeth-Ayerst Research

> <Link to Ligand in BindingDB>
http://www.bindingdb.org/bind/chemsearch/marvin/MolStructure.jsp?monomerid=50086957

> <Link to Ligand-Target Pair in BindingDB>
http://www.bindingdb.org/jsp/dbsearch/PrimarySearch_ki.jsp?energyterm=kJ/mole&tag=pol&polymerid=2622&target=Tyrosine-protein+phosphatase+non-receptor+type+1&column=ki&startPg=0&Increment=50&submit=Sea
rch
http://www.bindingdb.org/jsp/dbsearch/PrimarySearch_ki.jsp?energyterm=kJ/mole&tag=r21&monomerid=50086957&enzyme=Tyrosine-protein+phosphatase+non-receptor+type+1&column=ki&startPg=0&Increment=50&submit
=Search

> <PubChem CID of Ligand>
44274919

> <PubChem SID of Ligand>
103986068

> <ChEMBL ID of Ligand>
CHEMBL25231

> <ZINC ID of Ligand>
ZINC28757956

> <Number of Protein Chains in Target (bigger than 1 implies a multichain complex)>
1

> <BindingDB Target Chain Sequence>
MEMEKEFEQIDKSGSWAAIYQDIRHEASDFPCRVAKLPKNKNRNRYRDVSPFDHSRIKLHQEDNDYINASLIKMEEAQRSYILTQGPLPNTCGHFWEMVWEQKSRGVVMLNRVMEKGSLKCAQYWPQKEEKEMIFEDTNLKLTLISEDIKSYYTVRQLELENLTTQETREILHFHYTTWPDFGVPESPASFLNFLFKVRE
SGSLSPEHGPVVVHCSAGIGRSGTFCLADTCLLLMDKRKDPSSVDIKKVLLEMRKFRMGLIQTADQLRFSYLAVIEGAKFIMGDSSVQDQWKELSHEDLEPPPEHIPPPPRPPKRILEPHNGKCREFFPNHQWVKEETQEDKDCPIKEEKGSPLNAAPYGIESMSQDTEVRSRVVGGSLRGAQAASPAKGEPSLPEKDED
HALSYWKPFLVNMCVATVLTAGAYLCYRFLFNSNT

> <PDB ID(s) of Target Chain>
1BZJ,1G7G,1GFY,1JF7,1KAK,1KAV,1LQF,1NL9,1NNY,1NO6,1NZ7,1OEM,1OEO,1OES,1OET,1OEU,1OEV,1ONY,1ONZ,1PH0,1PXH,1PYN,1Q1M,1Q6J,1Q6M,1Q6N,1Q6P,1Q6S,1Q6T,1QXK,1SUG,1T48,1T49,1T4J,1WAX,1XBO,2AZR,2B07,2BGD,2BGE,
2CM2,2CM3,2CM7,2CM8,2CMA,2CMB,2CMC,2CNE,2CNF,2CNG,2CNH,2CNI,2F6T,2F6V,2F6W,2F6Y,2F6Z,2F70,2F71,2FJN,2H4G,2H4K,2HB1,2HNP,2HNQ,2QBP,2QBQ,2QBR,2QBS,2VEU,2VEV,2VEW,2VEX,2VEY,2ZMM,2ZN7,3A5J,3CWE,3D9C,3EAX,
3EB1,3EU0,3I7Z,3I80,3SME,4BJO,4I8N,4QBW,4Y14,5K9V,5K9W,5KA0,5KA1,5T19,6B90,6NTP,6W30,7KEY,7KLX,7LFO,7MN9,7MNA,8DU7,8G65,8G67,8G68,8G69,8G6A,8SKL

> <UniProt (SwissProt) Recommended Name of Target Chain>
Tyrosine-protein phosphatase non-receptor type 1

> <UniProt (SwissProt) Entry Name of Target Chain>
PTN1_HUMAN

> <UniProt (SwissProt) Primary ID of Target Chain>
P18031

> <UniProt (SwissProt) Secondary ID(s) of Target Chain>
Q5TGD8 Q9BQV9 Q9NQQ4

$$$$
Molecule
  SciTegic10242319433D

 68 73  0  0  0  0            999 V2000
    0.6397   -6.2878   -0.0297 C   0  0
    1.2420   -5.0610    0.0005 C   0  0
   -0.7610   -6.1353   -0.0269 O   0  0
    0.1319   -4.0962    0.0186 C   0  0
   -1.0469   -4.8225   -0.0011 C   0  0
   11.6883   -1.0938    0.1022 C   0  0  1  0  0  0
   11.0600   -2.3886   -0.1448 O   0  0
   13.1922   -1.3576    0.0057 C   0  0
    9.6198   -2.6595   -0.0180 C   0  0
    8.4861   -1.7108    0.4214 C   0  0
    6.9065   -3.5292    0.0356 C   0  0
    2.7589   -4.7025    0.0102 C   0  0
    7.2330   -2.1650    0.4211 C   0  0
    1.3344   -7.6651   -0.0484 C   0  0
    5.4964   -3.9541    0.0394 C   0  0
   11.2254    0.0710   -0.8640 C   0  0
   13.9556   -0.5385   -0.5176 O   0  0
    9.2723   -3.9101   -0.3407 C   0  0
    7.8762   -4.3681   -0.3098 C   0  0
    3.7251   -5.6112   -0.1645 C   0  0
    3.1756   -3.3026    0.2202 C   0  0
    4.4596   -2.9564    0.2430 C   0  0
    5.1524   -5.2254   -0.1614 C   0  0
    8.7012    0.0852    1.0376 Br  0  0
   13.6958   -2.5860    0.4178 O   0  0
    0.4140   -8.8939   -0.0274 C   0  0
   11.6433    1.5042   -0.4362 C   0  0
    0.1345   -2.7632    0.0385 C   0  0
   -2.2471   -4.2592    0.0006 C   0  0
   -0.9155   -8.7918   -0.0131 C   0  0
    1.0254  -10.2276   -0.0216 C   0  0
   12.6593    1.7487    0.3960 C   0  0
   10.8483    2.6366   -0.9306 C   0  0
   -1.1725   -2.0735    0.0437 C   0  0
   -2.3070   -2.7856    0.0262 C   0  0
    0.2618  -11.3195   -0.0030 C   0  0
   12.9951    3.1199    0.7880 C   0  0
   11.1394    3.8830   -0.5584 C   0  0
   -1.7569   -9.9890    0.0070 C   0  0
   -1.1958  -11.1955    0.0117 C   0  0
   12.2674    4.1380    0.3363 C   0  0
   11.4610   -0.7960    1.1258 H   0  0
    6.4278   -1.4933    0.7189 H   0  0
    1.9391   -7.7192   -0.9537 H   0  0
    1.9827   -7.7214    0.8260 H   0  0
   11.6503   -0.1219   -1.8491 H   0  0
   10.1375    0.0433   -0.9253 H   0  0
   10.0508   -4.6134   -0.6365 H   0  0
    7.6362   -5.3988   -0.5710 H   0  0
    3.4547   -6.6568   -0.3120 H   0  0
    2.4142   -2.5352    0.3598 H   0  0
    4.7363   -1.9163    0.4156 H   0  0
    5.9221   -5.9801   -0.3232 H   0  0
   13.4706   -2.7345    1.4326 H   0  0
    1.0685   -2.2013    0.0506 H   0  0
   -3.1550   -4.8621   -0.0162 H   0  0
   -1.3805   -7.8059   -0.0164 H   0  0
    2.1109  -10.3260   -0.0327 H   0  0
   13.2457    0.9178    0.7882 H   0  0
   10.0134    2.4559   -1.6075 H   0  0
   -1.2135   -0.9844    0.0618 H   0  0
   -3.2714   -2.2777    0.0308 H   0  0
    0.7239  -12.3066    0.0014 H   0  0
   13.8411    3.3060    1.4497 H   0  0
   10.5350    4.7141   -0.9219 H   0  0
   -2.8426   -9.8925    0.0180 H   0  0
   -1.8202  -12.0888    0.0265 H   0  0
   12.5111    5.1584    0.6321 H   0  0
  2  1  2  0
  3  1  1  0
  4  2  1  0
  5  3  1  0
  7  6  1  0
  7  9  1  0
  8  6  1  0
  9 18  2  0
 10 13  2  0
 11 15  1  0
 12  2  1  0
 13 11  1  0
 14  1  1  0
 15 22  1  0
 16  6  1  0
 17  8  2  0
 18 19  1  0
 19 11  2  0
 20 12  2  0
 21 12  1  0
 22 21  2  0
 23 20  1  0
 24 10  1  0
 25  8  1  0
 26 14  1  0
 27 16  1  0
 28  4  2  0
 29  5  2  0
 30 26  2  0
 31 26  1  0
 32 27  2  0
 33 27  1  0
 34 28  1  0
 35 29  1  0
 36 31  2  0
 37 32  1  0
 38 33  2  0
 39 30  1  0
 40 36  1  0
 41 38  1  0
  4  5  1  0
 34 35  2  0
 23 15  2  0
 39 40  2  0
 10  9  1  0
 37 41  2  0
  6 42  1  0
 13 43  1  0
 14 44  1  0
 14 45  1  0
 16 46  1  0
 16 47  1  0
 18 48  1  0
 19 49  1  0
 20 50  1  0
 21 51  1  0
 22 52  1  0
 23 53  1  0
 25 54  1  0
 28 55  1  0
 29 56  1  0
 30 57  1  0
 31 58  1  0
 32 59  1  0
 33 60  1  0
 34 61  1  0
 35 62  1  0
 36 63  1  0
 37 64  1  0
 38 65  1  0
 39 66  1  0
 40 67  1  0
 41 68  1  0
M  END
> <Name>
Molecule

> <Clean Energy>
49.8564

> <From>
www.bindingDB.org

> <BindingDB Reactant_set_id>
50154642

> <Ligand InChI>
InChI=1S/C36H27BrO4/c37-30-23-28(19-20-32(30)41-34(36(38)39)22-25-11-5-2-6-12-25)26-15-17-27(18-16-26)35-29-13-7-8-14-31(29)40-33(35)21-24-9-3-1-4-10-24/h1-20,23,34H,21-22H2,(H,38,39)

> <Ligand InChI Key>
JITQTJWWFAYWIV-UHFFFAOYSA-N

> <BindingDB MonomerID>
50086953

> <BindingDB Ligand Name>
2-[4'-(2-Benzyl-benzofuran-3-yl)-3-bromo-biphenyl-4-yloxy]-3-phenyl-propionic acid::CHEMBL25092

> <Target Name>
Tyrosine-protein phosphatase non-receptor type 1

> <Target Source Organism According to Curator or DataSource>
Homo sapiens

> <IC50 (nM)>
56

> <Curation/DataSource>
ChEMBL

> <Article DOI>
10.1021/jm990560c

> <BindingDB Entry DOI>
10.7270/Q2W958FT

> <PMID>
10753467

> <Authors>
Malamas, MS; Sredy, J; Moxham, C; Katz, A; Xu, W; McDevitt, R; Adebayo, FO; Sawicki, DR; Seestaller, L; Sullivan, D; Taylor, JR

> <Institution>
Wyeth-Ayerst Research

> <Link to Ligand in BindingDB>
http://www.bindingdb.org/bind/chemsearch/marvin/MolStructure.jsp?monomerid=50086953

> <Link to Ligand-Target Pair in BindingDB>
http://www.bindingdb.org/jsp/dbsearch/PrimarySearch_ki.jsp?energyterm=kJ/mole&tag=pol&polymerid=2622&target=Tyrosine-protein+phosphatase+non-receptor+type+1&column=ki&startPg=0&Increment=50&submit=Sea
rch
http://www.bindingdb.org/jsp/dbsearch/PrimarySearch_ki.jsp?energyterm=kJ/mole&tag=r21&monomerid=50086953&enzyme=Tyrosine-protein+phosphatase+non-receptor+type+1&column=ki&startPg=0&Increment=50&submit
=Search

> <PubChem CID of Ligand>
22462609

> <PubChem SID of Ligand>
103986064

> <ChEMBL ID of Ligand>
CHEMBL25092

> <ZINC ID of Ligand>
ZINC28759211

> <Number of Protein Chains in Target (bigger than 1 implies a multichain complex)>
1

> <BindingDB Target Chain Sequence>
MEMEKEFEQIDKSGSWAAIYQDIRHEASDFPCRVAKLPKNKNRNRYRDVSPFDHSRIKLHQEDNDYINASLIKMEEAQRSYILTQGPLPNTCGHFWEMVWEQKSRGVVMLNRVMEKGSLKCAQYWPQKEEKEMIFEDTNLKLTLISEDIKSYYTVRQLELENLTTQETREILHFHYTTWPDFGVPESPASFLNFLFKVRE
SGSLSPEHGPVVVHCSAGIGRSGTFCLADTCLLLMDKRKDPSSVDIKKVLLEMRKFRMGLIQTADQLRFSYLAVIEGAKFIMGDSSVQDQWKELSHEDLEPPPEHIPPPPRPPKRILEPHNGKCREFFPNHQWVKEETQEDKDCPIKEEKGSPLNAAPYGIESMSQDTEVRSRVVGGSLRGAQAASPAKGEPSLPEKDED
HALSYWKPFLVNMCVATVLTAGAYLCYRFLFNSNT

> <PDB ID(s) of Target Chain>
1BZJ,1G7G,1GFY,1JF7,1KAK,1KAV,1LQF,1NL9,1NNY,1NO6,1NZ7,1OEM,1OEO,1OES,1OET,1OEU,1OEV,1ONY,1ONZ,1PH0,1PXH,1PYN,1Q1M,1Q6J,1Q6M,1Q6N,1Q6P,1Q6S,1Q6T,1QXK,1SUG,1T48,1T49,1T4J,1WAX,1XBO,2AZR,2B07,2BGD,2BGE,
2CM2,2CM3,2CM7,2CM8,2CMA,2CMB,2CMC,2CNE,2CNF,2CNG,2CNH,2CNI,2F6T,2F6V,2F6W,2F6Y,2F6Z,2F70,2F71,2FJN,2H4G,2H4K,2HB1,2HNP,2HNQ,2QBP,2QBQ,2QBR,2QBS,2VEU,2VEV,2VEW,2VEX,2VEY,2ZMM,2ZN7,3A5J,3CWE,3D9C,3EAX,
3EB1,3EU0,3I7Z,3I80,3SME,4BJO,4I8N,4QBW,4Y14,5K9V,5K9W,5KA0,5KA1,5T19,6B90,6NTP,6W30,7KEY,7KLX,7LFO,7MN9,7MNA,8DU7,8G65,8G67,8G68,8G69,8G6A,8SKL

> <UniProt (SwissProt) Recommended Name of Target Chain>
Tyrosine-protein phosphatase non-receptor type 1

> <UniProt (SwissProt) Entry Name of Target Chain>
PTN1_HUMAN

> <UniProt (SwissProt) Primary ID of Target Chain>
P18031

> <UniProt (SwissProt) Secondary ID(s) of Target Chain>
Q5TGD8 Q9BQV9 Q9NQQ4

$$$$
Molecule
  SciTegic10242319433D

 68 73  0  0  0  0            999 V2000
   -3.0844  -24.6223    0.0744 C   0  0
   -3.8102  -25.9115   -0.0822 C   0  0
   -3.0668  -27.0102   -0.2655 C   0  0
   -1.6280  -26.9658   -0.3050 C   0  0
   -0.9799  -25.8231   -0.1592 C   0  0
   -1.7450  -24.5789    0.0442 C   0  0
    0.4916  -25.8659   -0.1699 C   0  0
    1.1431  -27.1511   -0.4335 C   0  0
    2.4679  -27.2607   -0.4029 C   0  0
    3.3037  -26.0929   -0.0870 C   0  0
    2.7085  -24.9135    0.1289 C   0  0
    1.2328  -24.7913    0.0849 C   0  0
   -5.3762  -26.0104   -0.0424 C   0  0
   -7.5271  -26.7503    0.0050 O   0  0
   -6.1636  -27.1117   -0.0352 C   0  0
   -7.5863  -25.4023    0.0219 C   0  0
   -6.2984  -24.8659    0.0023 C   0  0
   -6.0726  -23.5652    0.0085 C   0  0
   -7.2484  -22.6633    0.0434 C   0  0
   -8.4869  -23.1776    0.0621 C   0  0
   -8.6791  -24.6399    0.0509 C   0  0
    4.7427  -26.1643    0.0283 O   0  0
   -5.6877  -28.5858   -0.0595 C   0  0
   -6.7252  -29.6880   -0.0309 C   0  0
   -8.0351  -29.4438   -0.0122 C   0  0
   -8.9885  -30.5581    0.0126 C   0  0
   -8.5489  -31.8158    0.0164 C   0  0
   -7.1133  -32.0865   -0.0035 C   0  0
   -6.2490  -31.0754   -0.0260 C   0  0
    5.4291  -27.4772   -0.1154 C   0  0  1  0  0  0
    6.9801  -27.1813    0.0205 C   0  0
    7.9734  -28.3476   -0.1569 C   0  0
    7.6485  -29.4829   -0.7804 C   0  0
    8.6381  -30.5626   -0.9167 C   0  0
    9.8673  -30.4113   -0.4259 C   0  0
   10.2344  -29.1658    0.2451 C   0  0
    9.3383  -28.1876    0.3715 C   0  0
    4.9985  -28.4810    0.9906 C   0  0
    4.1155  -28.1730    1.7979 O   0  0
    5.5472  -29.7542    1.0679 O   0  0
    3.7662  -23.3922    0.5522 Br  0  0
   -3.6492  -23.7008    0.2155 H   0  0
   -3.5677  -27.9704   -0.3889 H   0  0
   -1.0658  -27.8871   -0.4573 H   0  0
   -1.2243  -23.6294    0.1694 H   0  0
    0.5350  -28.0275   -0.6574 H   0  0
    2.9370  -28.2218   -0.6132 H   0  0
    0.7572  -23.8264    0.2603 H   0  0
   -5.0575  -23.1686   -0.0113 H   0  0
   -7.1065  -21.5826    0.0538 H   0  0
   -9.3518  -22.5147    0.0856 H   0  0
   -9.6762  -25.0800    0.0657 H   0  0
   -5.1042  -28.7189   -0.9705 H   0  0
   -5.0445  -28.7290    0.8088 H   0  0
   -8.3980  -28.4160   -0.0154 H   0  0
  -10.0596  -30.3567    0.0279 H   0  0
   -9.2596  -32.6420    0.0345 H   0  0
   -6.7513  -33.1146    0.0000 H   0  0
   -5.1784  -31.2796   -0.0409 H   0  0
    5.2183  -27.8983   -1.0984 H   0  0
    7.2304  -26.4299   -0.7283 H   0  0
    7.1424  -26.7702    1.0169 H   0  0
    6.6464  -29.6100   -1.1899 H   0  0
    8.3648  -31.4895   -1.4208 H   0  0
   10.5976  -31.2145   -0.5246 H   0  0
   11.2412  -29.0370    0.6423 H   0  0
    9.6186  -27.2601    0.8708 H   0  0
    5.3465  -30.2768    0.1795 H   0  0
  9 10  1  0
 19 20  2  0
  2  3  2  0
 20 21  1  0
 21 16  2  0
 10 11  2  0
 10 22  1  0
  5  6  1  0
 15 23  1  0
 11 12  1  0
 23 24  1  0
 12  7  2  0
 24 25  2  0
  5  7  1  0
 25 26  1  0
 13 17  1  0
 26 27  2  0
  6  1  2  0
 27 28  1  0
  1  2  1  0
 28 29  2  0
 29 24  1  0
  3  4  1  0
 30 22  1  0
 16 14  1  0
 30 31  1  0
 14 15  1  0
 31 32  1  0
 15 13  2  0
 32 33  2  0
  2 13  1  0
 33 34  1  0
  7  8  1  0
 34 35  2  0
 35 36  1  0
 16 17  1  0
 36 37  2  0
 37 32  1  0
  8  9  2  0
 30 38  1  0
 17 18  2  0
 38 39  2  0
  4  5  2  0
 38 40  1  0
 18 19  1  0
 11 41  1  0
  1 42  1  0
  3 43  1  0
  4 44  1  0
  6 45  1  0
  8 46  1  0
  9 47  1  0
 12 48  1  0
 18 49  1  0
 19 50  1  0
 20 51  1  0
 21 52  1  0
 23 53  1  0
 23 54  1  0
 25 55  1  0
 26 56  1  0
 27 57  1  0
 28 58  1  0
 29 59  1  0
 30 60  1  0
 31 61  1  0
 31 62  1  0
 33 63  1  0
 34 64  1  0
 35 65  1  0
 36 66  1  0
 37 67  1  0
 40 68  1  0
M  END
> <Name>
Molecule

> <Clean Energy>
48.7715

> <From>
www.bindingDB.org

> <BindingDB Reactant_set_id>
51015927

> <Ligand InChI>
InChI=1S/C36H27BrO4/c37-30-23-28(19-20-32(30)41-34(36(38)39)22-25-11-5-2-6-12-25)26-15-17-27(18-16-26)35-29-13-7-8-14-31(29)40-33(35)21-24-9-3-1-4-10-24/h1-20,23,34H,21-22H2,(H,38,39)/t34-/m0/s1

> <Ligand InChI Key>
JITQTJWWFAYWIV-UMSFTDKQSA-N

> <BindingDB MonomerID>
50410201

> <BindingDB Ligand Name>
CHEMBL366281

> <Target Name>
Tyrosine-protein phosphatase non-receptor type 1

> <Target Source Organism According to Curator or DataSource>
Homo sapiens

> <IC50 (nM)>
56.23

> <Curation/DataSource>
ChEMBL

> <Article DOI>
10.1016/j.bmcl.2010.04.033

> <BindingDB Entry DOI>
10.7270/Q27D2WCC

> <PMID>
20452766

> <Authors>
Cheng, Y; Zhou, M; Tung, CH; Ji, M; Zhang, F

> <Institution>
Tsinghua University

> <Link to Ligand in BindingDB>
http://www.bindingdb.org/bind/chemsearch/marvin/MolStructure.jsp?monomerid=50410201

> <Link to Ligand-Target Pair in BindingDB>
http://www.bindingdb.org/jsp/dbsearch/PrimarySearch_ki.jsp?energyterm=kJ/mole&tag=pol&polymerid=2622&target=Tyrosine-protein+phosphatase+non-receptor+type+1&column=ki&startPg=0&Increment=50&submit=Sea
rch
http://www.bindingdb.org/jsp/dbsearch/PrimarySearch_ki.jsp?energyterm=kJ/mole&tag=r21&monomerid=50410201&enzyme=Tyrosine-protein+phosphatase+non-receptor+type+1&column=ki&startPg=0&Increment=50&submit
=Search

> <PubChem CID of Ligand>
9873553

> <PubChem SID of Ligand>
163359225

> <ChEMBL ID of Ligand>
CHEMBL366281

> <ZINC ID of Ligand>
ZINC28374682

> <Number of Protein Chains in Target (bigger than 1 implies a multichain complex)>
1

> <BindingDB Target Chain Sequence>
MEMEKEFEQIDKSGSWAAIYQDIRHEASDFPCRVAKLPKNKNRNRYRDVSPFDHSRIKLHQEDNDYINASLIKMEEAQRSYILTQGPLPNTCGHFWEMVWEQKSRGVVMLNRVMEKGSLKCAQYWPQKEEKEMIFEDTNLKLTLISEDIKSYYTVRQLELENLTTQETREILHFHYTTWPDFGVPESPASFLNFLFKVRE
SGSLSPEHGPVVVHCSAGIGRSGTFCLADTCLLLMDKRKDPSSVDIKKVLLEMRKFRMGLIQTADQLRFSYLAVIEGAKFIMGDSSVQDQWKELSHEDLEPPPEHIPPPPRPPKRILEPHNGKCREFFPNHQWVKEETQEDKDCPIKEEKGSPLNAAPYGIESMSQDTEVRSRVVGGSLRGAQAASPAKGEPSLPEKDED
HALSYWKPFLVNMCVATVLTAGAYLCYRFLFNSNT

> <PDB ID(s) of Target Chain>
1BZJ,1G7G,1GFY,1JF7,1KAK,1KAV,1LQF,1NL9,1NNY,1NO6,1NZ7,1OEM,1OEO,1OES,1OET,1OEU,1OEV,1ONY,1ONZ,1PH0,1PXH,1PYN,1Q1M,1Q6J,1Q6M,1Q6N,1Q6P,1Q6S,1Q6T,1QXK,1SUG,1T48,1T49,1T4J,1WAX,1XBO,2AZR,2B07,2BGD,2BGE,
2CM2,2CM3,2CM7,2CM8,2CMA,2CMB,2CMC,2CNE,2CNF,2CNG,2CNH,2CNI,2F6T,2F6V,2F6W,2F6Y,2F6Z,2F70,2F71,2FJN,2H4G,2H4K,2HB1,2HNP,2HNQ,2QBP,2QBQ,2QBR,2QBS,2VEU,2VEV,2VEW,2VEX,2VEY,2ZMM,2ZN7,3A5J,3CWE,3D9C,3EAX,
3EB1,3EU0,3I7Z,3I80,3SME,4BJO,4I8N,4QBW,4Y14,5K9V,5K9W,5KA0,5KA1,5T19,6B90,6NTP,6W30,7KEY,7KLX,7LFO,7MN9,7MNA,8DU7,8G65,8G67,8G68,8G69,8G6A,8SKL

> <UniProt (SwissProt) Recommended Name of Target Chain>
Tyrosine-protein phosphatase non-receptor type 1

> <UniProt (SwissProt) Entry Name of Target Chain>
PTN1_HUMAN

> <UniProt (SwissProt) Primary ID of Target Chain>
P18031

> <UniProt (SwissProt) Secondary ID(s) of Target Chain>
Q5TGD8 Q9BQV9 Q9NQQ4

$$$$
Molecule
  SciTegic10242319433D

 68 73  0  0  0  0            999 V2000
   12.0327    3.5462   -0.0789 C   0  0
   11.2994    2.2571    0.0827 C   0  0
   12.0465    1.1633    0.2699 C   0  0
   13.4910    1.2101    0.3096 C   0  0
   14.1385    2.3535    0.1599 C   0  0
   13.3719    3.5922   -0.0479 C   0  0
   15.6134    2.3190    0.1709 C   0  0
   16.2732    1.0382    0.4346 C   0  0
   17.5991    0.9372    0.4037 C   0  0
   18.4287    2.1098    0.0881 C   0  0
   17.8264    3.2858   -0.1276 C   0  0
   16.3486    3.3980   -0.0838 C   0  0
    9.7172    2.1700    0.0409 C   0  0
    7.2953    1.4536   -0.0144 S   0  0
    8.9526    1.0294    0.0341 C   0  0
    7.4152    3.0811   -0.0274 C   0  0
    8.7969    3.4361   -0.0017 C   0  0
    9.1493    4.7133   -0.0021 C   0  0
    8.0837    5.7460   -0.0344 C   0  0
    6.7925    5.3892   -0.0580 C   0  0
    6.4262    3.9685   -0.0540 C   0  0
   19.8688    2.0463   -0.0268 O   0  0
    9.4600   -0.4476    0.0557 C   0  0
    8.4615   -1.6049    0.0295 C   0  0
    7.1414   -1.4279    0.0136 C   0  0
    6.2375   -2.5801   -0.0091 C   0  0
    6.7319   -3.8160   -0.0138 C   0  0
    8.1785   -4.0202    0.0032 C   0  0
    8.9980   -2.9713    0.0238 C   0  0
   18.8756    4.8137   -0.5502 Br  0  0
   20.5599    0.7353    0.1147 C   0  0  2  0  0  0
   22.1110    1.0339   -0.0166 C   0  0
   23.1039   -0.1330    0.1605 C   0  0
   22.7782   -1.2679    0.7846 C   0  0
   23.7668   -2.3485    0.9208 C   0  0
   24.9959   -2.1987    0.4296 C   0  0
   25.3639   -0.9537   -0.2421 C   0  0
   24.4688    0.0255   -0.3684 C   0  0
   20.1344   -0.2657   -0.9958 C   0  0
   19.2518    0.0429   -1.8033 O   0  0
   20.6884   -1.5362   -1.0782 O   0  0
   11.4690    4.4677   -0.2248 H   0  0
   11.5483    0.2022    0.3970 H   0  0
   14.0544    0.2901    0.4652 H   0  0
   13.8905    4.5423   -0.1760 H   0  0
   15.6709    0.1578    0.6587 H   0  0
   18.0740   -0.0212    0.6137 H   0  0
   15.8670    4.3600   -0.2594 H   0  0
   10.2006    4.9999    0.0209 H   0  0
    8.3536    6.8020   -0.0391 H   0  0
    6.0154    6.1533   -0.0800 H   0  0
    5.3831    3.6530   -0.0722 H   0  0
   10.1049   -0.5703   -0.8145 H   0  0
   10.0500   -0.5631    0.9649 H   0  0
    6.7308   -0.4182    0.0176 H   0  0
    5.1586   -2.4254   -0.0222 H   0  0
    6.0593   -4.6736   -0.0304 H   0  0
    8.5866   -5.0310   -0.0008 H   0  0
   10.0766   -3.1284    0.0365 H   0  0
   20.3477    0.3103    1.0957 H   0  0
   22.2755    1.4477   -1.0115 H   0  0
   22.3587    1.7836    0.7348 H   0  0
   21.7761   -1.3939    1.1944 H   0  0
   23.4927   -3.2750    1.4254 H   0  0
   25.7254   -3.0025    0.5282 H   0  0
   26.3707   -0.8261   -0.6397 H   0  0
   24.7499    0.9525   -0.8681 H   0  0
   21.7268   -1.4578   -1.2125 H   0  0
  9 10  1  0
 19 20  2  0
  2  3  2  0
 20 21  1  0
 21 16  2  0
 10 11  2  0
 10 22  1  0
  5  6  1  0
 15 23  1  0
 11 12  1  0
 23 24  1  0
 12  7  2  0
 24 25  2  0
  5  7  1  0
 25 26  1  0
 13 17  1  0
 26 27  2  0
  6  1  2  0
 27 28  1  0
  1  2  1  0
 28 29  2  0
 29 24  1  0
  3  4  1  0
 11 30  1  0
 16 14  1  0
 31 22  1  0
 14 15  1  0
 31 32  1  0
 15 13  2  0
 32 33  1  0
  2 13  1  0
 33 34  2  0
  7  8  1  0
 34 35  1  0
 35 36  2  0
 16 17  1  0
 36 37  1  0
  8  9  2  0
 37 38  2  0
 38 33  1  0
 17 18  2  0
 31 39  1  0
  4  5  2  0
 39 40  2  0
 18 19  1  0
 39 41  1  0
  1 42  1  0
  3 43  1  0
  4 44  1  0
  6 45  1  0
  8 46  1  0
  9 47  1  0
 12 48  1  0
 18 49  1  0
 19 50  1  0
 20 51  1  0
 21 52  1  0
 23 53  1  0
 23 54  1  0
 25 55  1  0
 26 56  1  0
 27 57  1  0
 28 58  1  0
 29 59  1  0
 31 60  1  0
 32 61  1  0
 32 62  1  0
 34 63  1  0
 35 64  1  0
 36 65  1  0
 37 66  1  0
 38 67  1  0
 41 68  1  0
M  END
> <Name>
Molecule

> <Clean Energy>
52.6099

> <From>
www.bindingDB.org

> <BindingDB Reactant_set_id>
51015936

> <Ligand InChI>
InChI=1S/C36H27BrO3S/c37-30-23-28(19-20-31(30)40-32(36(38)39)21-24-9-3-1-4-10-24)26-15-17-27(18-16-26)35-29-13-7-8-14-33(29)41-34(35)22-25-11-5-2-6-12-25/h1-20,23,32H,21-22H2,(H,38,39)/t32-/m1/s1

> <Ligand InChI Key>
AEICCHBFXCKZBF-JGCGQSQUSA-N

> <BindingDB MonomerID>
50410214

> <BindingDB Ligand Name>
CHEMBL187610

> <Target Name>
Tyrosine-protein phosphatase non-receptor type 1

> <Target Source Organism According to Curator or DataSource>
Homo sapiens

> <IC50 (nM)>
57.54

> <Curation/DataSource>
ChEMBL

> <Article DOI>
10.1016/j.bmcl.2010.04.033

> <BindingDB Entry DOI>
10.7270/Q27D2WCC

> <PMID>
20452766

> <Authors>
Cheng, Y; Zhou, M; Tung, CH; Ji, M; Zhang, F

> <Institution>
Tsinghua University

> <Link to Ligand in BindingDB>
http://www.bindingdb.org/bind/chemsearch/marvin/MolStructure.jsp?monomerid=50410214

> <Link to Ligand-Target Pair in BindingDB>
http://www.bindingdb.org/jsp/dbsearch/PrimarySearch_ki.jsp?energyterm=kJ/mole&tag=pol&polymerid=2622&target=Tyrosine-protein+phosphatase+non-receptor+type+1&column=ki&startPg=0&Increment=50&submit=Sea
rch
http://www.bindingdb.org/jsp/dbsearch/PrimarySearch_ki.jsp?energyterm=kJ/mole&tag=r21&monomerid=50410214&enzyme=Tyrosine-protein+phosphatase+non-receptor+type+1&column=ki&startPg=0&Increment=50&submit
=Search

> <PubChem CID of Ligand>
9852025

> <PubChem SID of Ligand>
163359238

> <ChEMBL ID of Ligand>
CHEMBL187610

> <ZINC ID of Ligand>
ZINC28462862

> <Number of Protein Chains in Target (bigger than 1 implies a multichain complex)>
1

> <BindingDB Target Chain Sequence>
MEMEKEFEQIDKSGSWAAIYQDIRHEASDFPCRVAKLPKNKNRNRYRDVSPFDHSRIKLHQEDNDYINASLIKMEEAQRSYILTQGPLPNTCGHFWEMVWEQKSRGVVMLNRVMEKGSLKCAQYWPQKEEKEMIFEDTNLKLTLISEDIKSYYTVRQLELENLTTQETREILHFHYTTWPDFGVPESPASFLNFLFKVRE
SGSLSPEHGPVVVHCSAGIGRSGTFCLADTCLLLMDKRKDPSSVDIKKVLLEMRKFRMGLIQTADQLRFSYLAVIEGAKFIMGDSSVQDQWKELSHEDLEPPPEHIPPPPRPPKRILEPHNGKCREFFPNHQWVKEETQEDKDCPIKEEKGSPLNAAPYGIESMSQDTEVRSRVVGGSLRGAQAASPAKGEPSLPEKDED
HALSYWKPFLVNMCVATVLTAGAYLCYRFLFNSNT

> <PDB ID(s) of Target Chain>
1BZJ,1G7G,1GFY,1JF7,1KAK,1KAV,1LQF,1NL9,1NNY,1NO6,1NZ7,1OEM,1OEO,1OES,1OET,1OEU,1OEV,1ONY,1ONZ,1PH0,1PXH,1PYN,1Q1M,1Q6J,1Q6M,1Q6N,1Q6P,1Q6S,1Q6T,1QXK,1SUG,1T48,1T49,1T4J,1WAX,1XBO,2AZR,2B07,2BGD,2BGE,
2CM2,2CM3,2CM7,2CM8,2CMA,2CMB,2CMC,2CNE,2CNF,2CNG,2CNH,2CNI,2F6T,2F6V,2F6W,2F6Y,2F6Z,2F70,2F71,2FJN,2H4G,2H4K,2HB1,2HNP,2HNQ,2QBP,2QBQ,2QBR,2QBS,2VEU,2VEV,2VEW,2VEX,2VEY,2ZMM,2ZN7,3A5J,3CWE,3D9C,3EAX,
3EB1,3EU0,3I7Z,3I80,3SME,4BJO,4I8N,4QBW,4Y14,5K9V,5K9W,5KA0,5KA1,5T19,6B90,6NTP,6W30,7KEY,7KLX,7LFO,7MN9,7MNA,8DU7,8G65,8G67,8G68,8G69,8G6A,8SKL

> <UniProt (SwissProt) Recommended Name of Target Chain>
Tyrosine-protein phosphatase non-receptor type 1

> <UniProt (SwissProt) Entry Name of Target Chain>
PTN1_HUMAN

> <UniProt (SwissProt) Primary ID of Target Chain>
P18031

> <UniProt (SwissProt) Secondary ID(s) of Target Chain>
Q5TGD8 Q9BQV9 Q9NQQ4

$$$$
Molecule
  SciTegic10242319433D

 68 73  0  0  0  0            999 V2000
   -0.4645   -4.2175    0.0153 C   0  0
    0.1180   -2.9687    0.0293 C   0  0
   -2.1633   -4.0426   -0.0364 S   0  0
   -0.9906   -1.8634   -0.0074 C   0  0
   -2.2972   -2.4215   -0.0386 C   0  0
   11.0904   -2.2973    0.1634 C   0  0  1  0  0  0
   10.1122   -1.1610    0.0656 O   0  0
   10.9077   -3.3695   -0.9701 C   0  0
    8.6845   -1.3880    0.1768 C   0  0
    7.7669   -0.2394   -0.0318 C   0  0
    5.8885   -1.7538    0.2317 C   0  0
    1.6615   -2.6320    0.0809 C   0  0
    6.4414   -0.4155   -0.0059 C   0  0
    0.2515   -5.6063    0.0344 C   0  0
    4.4359   -2.0144    0.1944 C   0  0
   12.5405   -1.6581    0.0874 C   0  0
    9.7927   -3.6419   -1.4213 O   0  0
    8.1584   -2.5858    0.4300 C   0  0
    6.7128   -2.7755    0.4500 C   0  0
    2.5863   -3.5818    0.2465 C   0  0
    2.1563   -1.2301   -0.0419 C   0  0
    3.4609   -0.9411    0.0073 C   0  0
    4.0096   -3.2672    0.3049 C   0  0
    8.4821    1.4951   -0.3503 Br  0  0
   11.9933   -4.0558   -1.4934 O   0  0
   -0.6001   -6.8952    0.0185 C   0  0
   13.7663   -2.5772    0.2446 C   0  0
   -0.8417   -0.5426    0.0002 C   0  0
   -3.4111   -1.7010   -0.0614 C   0  0
   13.6897   -3.7944    0.7892 C   0  0
   15.0685   -2.0858   -0.2362 C   0  0
    0.0350   -8.0677    0.0138 C   0  0
   -2.0699   -6.8913    0.0113 C   0  0
   -2.0523    0.3109   -0.0279 C   0  0
   -3.2718   -0.2412   -0.0558 C   0  0
   16.1575   -2.8472   -0.1438 C   0  0
   -0.7199   -9.3269    0.0010 C   0  0
   -2.7568   -8.0318    0.0001 C   0  0
   14.8954   -4.6325    0.8917 C   0  0
   -2.0508   -9.3085   -0.0053 C   0  0
   16.0670   -4.1820    0.4441 C   0  0
   10.9699   -2.7837    1.1314 H   0  0
    5.7740    0.4323   -0.1607 H   0  0
    0.8992   -5.6422   -0.8415 H   0  0
    0.8597   -5.6381    0.9384 H   0  0
   12.6263   -1.1737   -0.8852 H   0  0
   12.6008   -0.9068    0.8748 H   0  0
    8.8159   -3.4331    0.6243 H   0  0
    6.3025   -3.7661    0.6460 H   0  0
    2.2687   -4.6202    0.3406 H   0  0
    1.4370   -0.4219   -0.1750 H   0  0
    3.7963    0.0912   -0.0918 H   0  0
    4.7329   -4.0712    0.4411 H   0  0
   12.6699   -3.3724   -1.9148 H   0  0
    0.1522   -0.0959    0.0265 H   0  0
   -4.3920   -2.1759   -0.0834 H   0  0
   12.7341   -4.1672    1.1578 H   0  0
   15.1419   -1.0893   -0.6718 H   0  0
    1.1247   -8.0915    0.0195 H   0  0
   -2.6049   -5.9416    0.0151 H   0  0
   -1.9495    1.3960   -0.0258 H   0  0
   -4.1584    0.3926   -0.0743 H   0  0
   17.1156   -2.4748   -0.5065 H   0  0
   -0.1893  -10.2790   -0.0033 H   0  0
   -3.8466   -8.0116   -0.0050 H   0  0
   14.8297   -5.6259    1.3357 H   0  0
   -2.6110  -10.2435   -0.0144 H   0  0
   16.9563   -4.8082    0.5162 H   0  0
  2  1  2  0
  3  1  1  0
  4  2  1  0
  5  3  1  0
  7  6  1  0
  7  9  1  0
  8  6  1  0
  9 18  2  0
 10 13  2  0
 11 15  1  0
 12  2  1  0
 13 11  1  0
 14  1  1  0
 15 22  1  0
 16  6  1  0
 17  8  2  0
 18 19  1  0
 19 11  2  0
 20 12  2  0
 21 12  1  0
 22 21  2  0
 23 20  1  0
 24 10  1  0
 25  8  1  0
 26 14  1  0
 27 16  1  0
 28  4  2  0
 29  5  2  0
 30 27  2  0
 31 27  1  0
 32 26  2  0
 33 26  1  0
 34 28  1  0
 35 29  1  0
 36 31  2  0
 37 32  1  0
 38 33  2  0
 39 30  1  0
 40 38  1  0
 41 36  1  0
  4  5  1  0
 34 35  2  0
 23 15  2  0
 37 40  2  0
 10  9  1  0
 39 41  2  0
  6 42  1  0
 13 43  1  0
 14 44  1  0
 14 45  1  0
 16 46  1  0
 16 47  1  0
 18 48  1  0
 19 49  1  0
 20 50  1  0
 21 51  1  0
 22 52  1  0
 23 53  1  0
 25 54  1  0
 28 55  1  0
 29 56  1  0
 30 57  1  0
 31 58  1  0
 32 59  1  0
 33 60  1  0
 34 61  1  0
 35 62  1  0
 36 63  1  0
 37 64  1  0
 38 65  1  0
 39 66  1  0
 40 67  1  0
 41 68  1  0
M  END
> <Name>
Molecule

> <Clean Energy>
46.4791

> <From>
www.bindingDB.org

> <BindingDB Reactant_set_id>
50154688

> <Ligand InChI>
InChI=1S/C36H27BrO3S/c37-30-23-28(19-20-31(30)40-32(36(38)39)21-24-9-3-1-4-10-24)26-15-17-27(18-16-26)35-29-13-7-8-14-33(29)41-34(35)22-25-11-5-2-6-12-25/h1-20,23,32H,21-22H2,(H,38,39)

> <Ligand InChI Key>
AEICCHBFXCKZBF-UHFFFAOYSA-N

> <BindingDB MonomerID>
50086994

> <BindingDB Ligand Name>
2-[4'-(2-Benzyl-benzo[b]thiophen-3-yl)-3-bromo-biphenyl-4-yloxy]-3-phenyl-propionic acid::CHEMBL280156

> <Target Name>
Tyrosine-protein phosphatase non-receptor type 1

> <Target Source Organism According to Curator or DataSource>
Homo sapiens

> <IC50 (nM)>
58

> <Curation/DataSource>
ChEMBL

> <Article DOI>
10.1021/jm990560c

> <BindingDB Entry DOI>
10.7270/Q2W958FT

> <PMID>
10753467

> <Authors>
Malamas, MS; Sredy, J; Moxham, C; Katz, A; Xu, W; McDevitt, R; Adebayo, FO; Sawicki, DR; Seestaller, L; Sullivan, D; Taylor, JR

> <Institution>
Wyeth-Ayerst Research

> <Link to Ligand in BindingDB>
http://www.bindingdb.org/bind/chemsearch/marvin/MolStructure.jsp?monomerid=50086994

> <Link to Ligand-Target Pair in BindingDB>
http://www.bindingdb.org/jsp/dbsearch/PrimarySearch_ki.jsp?energyterm=kJ/mole&tag=pol&polymerid=2622&target=Tyrosine-protein+phosphatase+non-receptor+type+1&column=ki&startPg=0&Increment=50&submit=Sea
rch
http://www.bindingdb.org/jsp/dbsearch/PrimarySearch_ki.jsp?energyterm=kJ/mole&tag=r21&monomerid=50086994&enzyme=Tyrosine-protein+phosphatase+non-receptor+type+1&column=ki&startPg=0&Increment=50&submit
=Search

> <PubChem CID of Ligand>
22462591

> <PubChem SID of Ligand>
103986105

> <ChEMBL ID of Ligand>
CHEMBL280156

> <ZINC ID of Ligand>
ZINC28758467

> <Number of Protein Chains in Target (bigger than 1 implies a multichain complex)>
1

> <BindingDB Target Chain Sequence>
MEMEKEFEQIDKSGSWAAIYQDIRHEASDFPCRVAKLPKNKNRNRYRDVSPFDHSRIKLHQEDNDYINASLIKMEEAQRSYILTQGPLPNTCGHFWEMVWEQKSRGVVMLNRVMEKGSLKCAQYWPQKEEKEMIFEDTNLKLTLISEDIKSYYTVRQLELENLTTQETREILHFHYTTWPDFGVPESPASFLNFLFKVRE
SGSLSPEHGPVVVHCSAGIGRSGTFCLADTCLLLMDKRKDPSSVDIKKVLLEMRKFRMGLIQTADQLRFSYLAVIEGAKFIMGDSSVQDQWKELSHEDLEPPPEHIPPPPRPPKRILEPHNGKCREFFPNHQWVKEETQEDKDCPIKEEKGSPLNAAPYGIESMSQDTEVRSRVVGGSLRGAQAASPAKGEPSLPEKDED
HALSYWKPFLVNMCVATVLTAGAYLCYRFLFNSNT

> <PDB ID(s) of Target Chain>
1BZJ,1G7G,1GFY,1JF7,1KAK,1KAV,1LQF,1NL9,1NNY,1NO6,1NZ7,1OEM,1OEO,1OES,1OET,1OEU,1OEV,1ONY,1ONZ,1PH0,1PXH,1PYN,1Q1M,1Q6J,1Q6M,1Q6N,1Q6P,1Q6S,1Q6T,1QXK,1SUG,1T48,1T49,1T4J,1WAX,1XBO,2AZR,2B07,2BGD,2BGE,
2CM2,2CM3,2CM7,2CM8,2CMA,2CMB,2CMC,2CNE,2CNF,2CNG,2CNH,2CNI,2F6T,2F6V,2F6W,2F6Y,2F6Z,2F70,2F71,2FJN,2H4G,2H4K,2HB1,2HNP,2HNQ,2QBP,2QBQ,2QBR,2QBS,2VEU,2VEV,2VEW,2VEX,2VEY,2ZMM,2ZN7,3A5J,3CWE,3D9C,3EAX,
3EB1,3EU0,3I7Z,3I80,3SME,4BJO,4I8N,4QBW,4Y14,5K9V,5K9W,5KA0,5KA1,5T19,6B90,6NTP,6W30,7KEY,7KLX,7LFO,7MN9,7MNA,8DU7,8G65,8G67,8G68,8G69,8G6A,8SKL

> <UniProt (SwissProt) Recommended Name of Target Chain>
Tyrosine-protein phosphatase non-receptor type 1

> <UniProt (SwissProt) Entry Name of Target Chain>
PTN1_HUMAN

> <UniProt (SwissProt) Primary ID of Target Chain>
P18031

> <UniProt (SwissProt) Secondary ID(s) of Target Chain>
Q5TGD8 Q9BQV9 Q9NQQ4

$$$$
Molecule
  SciTegic10242319433D

 39 41  0  0  0  0            999 V2000
    5.9278   -8.5978   -0.0059 C   0  0
    5.9039   -9.8927    0.3630 C   0  0
    7.1835  -10.6414    0.4317 C   0  0
    7.2117   -7.9582   -0.3096 C   0  0
    8.3451   -8.6438   -0.2307 C   0  0
    8.3414  -10.0347    0.1436 C   0  0
    9.5650  -10.7379    0.2079 N   0  0
   10.6816  -10.1492   -0.0413 C   0  0
   10.7286   -8.7221   -0.4089 C   0  0
    9.6138   -8.0049   -0.5054 C   0  0
    4.6057  -10.6356    0.7356 C   0  0
    3.8938  -11.2802   -0.6234 P   0  0
    2.6003  -12.0290   -0.2041 O   0  0
    3.5712  -10.2775   -1.5145 O   0  0
    4.8670  -12.2797   -1.2959 O   0  0
    4.9064  -11.6873    1.5718 F   0  0
    3.6876   -9.7981    1.3269 F   0  0
   11.9392  -10.9055    0.0433 C   0  0
    4.3534   -7.5216   -0.1417 Br  0  0
   13.1007  -10.2387   -0.1356 N   0  0
   14.4091  -10.8192   -0.0790 C   0  0
   14.6046  -12.1342    0.0233 C   0  0
   15.9648  -12.6821    0.0781 C   0  0
   17.0157  -11.8658    0.0285 C   0  0
   16.8114  -10.4219   -0.0829 C   0  0
   15.5759   -9.9244   -0.1358 C   0  0
   11.9046  -12.1106    0.2946 O   0  0
    7.1804  -11.6929    0.7188 H   0  0
    7.2355   -6.9087   -0.6033 H   0  0
   11.6908   -8.2488   -0.6043 H   0  0
    9.6547   -6.9526   -0.7868 H   0  0
    1.9367  -11.3545    0.2511 H   0  0
    5.1075  -13.0446   -0.6179 H   0  0
   13.0379   -9.1895   -0.3363 H   0  0
   13.7481  -12.8069    0.0665 H   0  0
   16.1151  -13.7586    0.1595 H   0  0
   18.0260  -12.2728    0.0708 H   0  0
   17.6703   -9.7520   -0.1226 H   0  0
   15.4290   -8.8478   -0.2218 H   0  0
 12 13  1  0
  3  6  2  0
 12 14  2  0
  6  7  1  0
 12 15  1  0
  1  2  2  0
 11 16  1  0
  7  8  2  0
 11 17  1  0
  5  4  2  0
  8 18  1  0
  8  9  1  0
  1 19  1  0
  4  1  1  0
 18 20  1  0
  9 10  2  0
 20 21  1  0
 10  5  1  0
 21 22  2  0
 22 23  1  0
  2 11  1  0
 23 24  2  0
  2  3  1  0
 24 25  1  0
 11 12  1  0
 25 26  2  0
 26 21  1  0
  5  6  1  0
 18 27  2  0
  3 28  1  0
  4 29  1  0
  9 30  1  0
 10 31  1  0
 13 32  1  0
 15 33  1  0
 20 34  1  0
 22 35  1  0
 23 36  1  0
 24 37  1  0
 25 38  1  0
 26 39  1  0
M  END
> <Name>
Molecule

> <Clean Energy>
12.7808

> <From>
www.bindingDB.org

> <BindingDB Reactant_set_id>
50859544

> <Ligand InChI>
InChI=1S/C17H12BrF2N2O4P/c18-13-8-10-6-7-14(16(23)21-11-4-2-1-3-5-11)22-15(10)9-12(13)17(19,20)27(24,25)26/h1-9H,(H,21,23)(H2,24,25,26)

> <Ligand InChI Key>
MCWQKJKJVFCSKO-UHFFFAOYSA-N

> <BindingDB MonomerID>
50373450

> <BindingDB Ligand Name>
CHEMBL261418

> <Target Name>
Tyrosine-protein phosphatase non-receptor type 1

> <Target Source Organism According to Curator or DataSource>
Homo sapiens

> <IC50 (nM)>
60

> <Curation/DataSource>
ChEMBL

> <Article DOI>
10.1016/j.bmcl.2008.04.064

> <BindingDB Entry DOI>
10.7270/Q24M95DX

> <PMID>
18477508

> <Authors>
Han, Y; Belley, M; Bayly, CI; Colucci, J; Dufresne, C; Giroux, A; Lau, CK; Leblanc, Y; McKay, D; Therien, M; Wilson, MC; Skorey, K; Chan, CC; Scapin, G; Kennedy, BP

> <Institution>
Merck Frosst Centre for Therapeutic Research

> <Link to Ligand in BindingDB>
http://www.bindingdb.org/bind/chemsearch/marvin/MolStructure.jsp?monomerid=50373450

> <Link to Ligand-Target Pair in BindingDB>
http://www.bindingdb.org/jsp/dbsearch/PrimarySearch_ki.jsp?energyterm=kJ/mole&tag=pol&polymerid=2622&target=Tyrosine-protein+phosphatase+non-receptor+type+1&column=ki&startPg=0&Increment=50&submit=Sea
rch
http://www.bindingdb.org/jsp/dbsearch/PrimarySearch_ki.jsp?energyterm=kJ/mole&tag=r21&monomerid=50373450&enzyme=Tyrosine-protein+phosphatase+non-receptor+type+1&column=ki&startPg=0&Increment=50&submit
=Search

> <PubChem CID of Ligand>
25055680

> <PubChem SID of Ligand>
160852551

> <ChEMBL ID of Ligand>
CHEMBL261418

> <ZINC ID of Ligand>
ZINC29047902

> <Number of Protein Chains in Target (bigger than 1 implies a multichain complex)>
1

> <BindingDB Target Chain Sequence>
MEMEKEFEQIDKSGSWAAIYQDIRHEASDFPCRVAKLPKNKNRNRYRDVSPFDHSRIKLHQEDNDYINASLIKMEEAQRSYILTQGPLPNTCGHFWEMVWEQKSRGVVMLNRVMEKGSLKCAQYWPQKEEKEMIFEDTNLKLTLISEDIKSYYTVRQLELENLTTQETREILHFHYTTWPDFGVPESPASFLNFLFKVRE
SGSLSPEHGPVVVHCSAGIGRSGTFCLADTCLLLMDKRKDPSSVDIKKVLLEMRKFRMGLIQTADQLRFSYLAVIEGAKFIMGDSSVQDQWKELSHEDLEPPPEHIPPPPRPPKRILEPHNGKCREFFPNHQWVKEETQEDKDCPIKEEKGSPLNAAPYGIESMSQDTEVRSRVVGGSLRGAQAASPAKGEPSLPEKDED
HALSYWKPFLVNMCVATVLTAGAYLCYRFLFNSNT

> <PDB ID(s) of Target Chain>
1BZJ,1G7G,1GFY,1JF7,1KAK,1KAV,1LQF,1NL9,1NNY,1NO6,1NZ7,1OEM,1OEO,1OES,1OET,1OEU,1OEV,1ONY,1ONZ,1PH0,1PXH,1PYN,1Q1M,1Q6J,1Q6M,1Q6N,1Q6P,1Q6S,1Q6T,1QXK,1SUG,1T48,1T49,1T4J,1WAX,1XBO,2AZR,2B07,2BGD,2BGE,
2CM2,2CM3,2CM7,2CM8,2CMA,2CMB,2CMC,2CNE,2CNF,2CNG,2CNH,2CNI,2F6T,2F6V,2F6W,2F6Y,2F6Z,2F70,2F71,2FJN,2H4G,2H4K,2HB1,2HNP,2HNQ,2QBP,2QBQ,2QBR,2QBS,2VEU,2VEV,2VEW,2VEX,2VEY,2ZMM,2ZN7,3A5J,3CWE,3D9C,3EAX,
3EB1,3EU0,3I7Z,3I80,3SME,4BJO,4I8N,4QBW,4Y14,5K9V,5K9W,5KA0,5KA1,5T19,6B90,6NTP,6W30,7KEY,7KLX,7LFO,7MN9,7MNA,8DU7,8G65,8G67,8G68,8G69,8G6A,8SKL

> <UniProt (SwissProt) Recommended Name of Target Chain>
Tyrosine-protein phosphatase non-receptor type 1

> <UniProt (SwissProt) Entry Name of Target Chain>
PTN1_HUMAN

> <UniProt (SwissProt) Primary ID of Target Chain>
P18031

> <UniProt (SwissProt) Secondary ID(s) of Target Chain>
Q5TGD8 Q9BQV9 Q9NQQ4

$$$$
Molecule
  SciTegic10242319433D

 67 70  0  0  0  0            999 V2000
    0.7970   -2.5287   -0.1265 S   0  0
    8.8797   -5.2623    0.5906 C   0  0
    9.4663   -6.6662   -0.1207 P   0  0
    7.4886   -4.7484    0.1195 C   0  0
    2.2148   -3.6248    0.1147 N   0  0
   -4.3909   -9.8098   -0.0035 N   0  0
   -3.1012   -7.9650    0.1081 C   0  0
   -3.2306   -9.4112   -0.0536 N   0  0
    7.2703   -3.3175   -0.2358 C   0  0
   -5.3685   -8.5409    0.2310 S   0  0
    0.9644   -0.7593   -0.0344 C   0  0
   -4.2563   -7.3283    0.2790 C   0  0
    6.4314   -5.5600    0.1684 C   0  0
    0.1847   -2.8217   -1.4822 O   0  0
   -0.2414   -2.7800    0.9501 O   0  0
    3.4412   -3.1050   -0.6621 C   0  0
   -1.8234   -7.2688    0.0550 C   0  0
   10.6344   -7.0061    0.5371 O   0  0
    1.9248   -5.0725   -0.3715 C   0  0
    2.0285    5.5038    0.0052 C   0  0
    6.0324   -2.8728   -0.4851 C   0  0
    8.7053   -5.5965    1.9115 F   0  0
    9.8366   -4.2804    0.4889 F   0  0
    4.8639   -3.7582   -0.4170 C   0  0
    9.7894   -6.4380   -1.6170 O   0  0
    8.4603   -7.8337    0.0265 O   0  0
    0.9006    6.0088   -0.0414 O   0  0
   -0.1820   -0.0806   -0.0560 C   0  0
    2.2372   -0.0321    0.0314 C   0  0
   -0.6854   -7.9183   -0.1650 C   0  0
   -1.8136   -5.8384    0.2142 C   0  0
    0.8795    3.4341    0.0341 O   0  0
    5.0695   -5.0477   -0.1185 C   0  0
    0.5912   -5.8388   -0.1287 C   0  0
    2.1777    4.0148    0.0596 C   0  0
    0.9355    2.0389    0.0263 C   0  0
    8.3551   -2.4215   -0.2882 O   0  0
    3.1554    6.3155   -0.0035 O   0  0
   -0.6700   -5.1757    0.1289 C   0  0
    0.5827   -7.1658   -0.2745 C   0  0
   -0.2035    1.3627   -0.0215 C   0  0
    2.2248    1.3051    0.0577 C   0  0
    7.9278   -1.0879   -0.6129 C   0  0
   -4.4257   -6.2605    0.4175 H   0  0
    6.5698   -6.6111    0.4220 H   0  0
    3.2174   -3.2252   -1.7221 H   0  0
    3.5365   -2.0447   -0.4283 H   0  0
    2.0550   -5.0488   -1.4534 H   0  0
    2.7027   -5.6918    0.0752 H   0  0
    5.8885   -1.8243   -0.7459 H   0  0
    8.9176   -6.1440   -2.1230 H   0  0
    8.2887   -8.0222    1.0451 H   0  0
   -1.1242   -0.6269   -0.1008 H   0  0
    3.1818   -0.5754    0.0586 H   0  0
   -0.6867   -9.0037   -0.2646 H   0  0
   -2.7436   -5.3026    0.4042 H   0  0
    4.2216   -5.7319   -0.0859 H   0  0
    2.7521    3.6706   -0.8005 H   0  0
    2.6909    3.7293    0.9778 H   0  0
    3.7142    6.1489    0.8698 H   0  0
   -0.6785   -4.0933    0.2571 H   0  0
    1.5136   -7.6963   -0.4749 H   0  0
   -1.1545    1.8951   -0.0347 H   0  0
    3.1637    1.8570    0.1022 H   0  0
    8.7932   -0.4260   -0.6439 H   0  0
    7.2283   -0.7353    0.1451 H   0  0
    7.4375   -1.0899   -1.5864 H   0  0
  2  4  1  0
  3  2  1  0
  4 13  2  0
  5  1  1  0
  6  8  2  0
  7 17  1  0
  8  7  1  0
  9 21  2  0
 10 12  1  0
 11  1  1  0
 12  7  2  0
 13 33  1  0
 14  1  2  0
 15  1  2  0
 16  5  1  0
 17 30  2  0
 18  3  2  0
 19  5  1  0
 20 35  1  0
 21 24  1  0
 22  2  1  0
 23  2  1  0
 24 16  1  0
 25  3  1  0
 26  3  1  0
 27 20  2  0
 28 11  2  0
 29 11  1  0
 30 40  1  0
 31 39  2  0
 32 36  1  0
 33 24  2  0
 34 19  1  0
 35 32  1  0
 36 42  1  0
 37  9  1  0
 38 20  1  0
 39 34  1  0
 40 34  2  0
 41 28  1  0
 42 29  2  0
 43 37  1  0
 41 36  2  0
 31 17  1  0
  9  4  1  0
 10  6  1  0
 12 44  1  0
 13 45  1  0
 16 46  1  0
 16 47  1  0
 19 48  1  0
 19 49  1  0
 21 50  1  0
 25 51  1  0
 26 52  1  0
 28 53  1  0
 29 54  1  0
 30 55  1  0
 31 56  1  0
 33 57  1  0
 35 58  1  0
 35 59  1  0
 38 60  1  0
 39 61  1  0
 40 62  1  0
 41 63  1  0
 42 64  1  0
 43 65  1  0
 43 66  1  0
 43 67  1  0
M  END
> <Name>
Molecule

> <Clean Energy>
67.8745

> <From>
www.bindingDB.org

> <BindingDB Reactant_set_id>
50315586

> <Ligand InChI>
InChI=1S/C26H24F2N3O9PS2/c1-39-24-12-18(4-11-22(24)26(27,28)41(34,35)36)14-31(13-17-2-5-19(6-3-17)23-16-42-30-29-23)43(37,38)21-9-7-20(8-10-21)40-15-25(32)33/h2-12,16H,13-15H2,1H3,(H,32,33)(H2,34,35,3
6)

> <Ligand InChI Key>
NXLCBCPFILNDJW-UHFFFAOYSA-N

> <BindingDB MonomerID>
50171091

> <BindingDB Ligand Name>
CHEMBL198939::{4-[[4-(Difluoro-phosphono-methyl)-3-methoxy-benzyl]-(4-[1,2,3]thiadiazol-4-yl-benzyl)-sulfamoyl]-phenoxy}-acetic acid

> <Target Name>
Tyrosine-protein phosphatase non-receptor type 1

> <Target Source Organism According to Curator or DataSource>
Homo sapiens

> <IC50 (nM)>
60

> <Curation/DataSource>
ChEMBL

> <Article DOI>
10.1016/j.bmcl.2005.06.061

> <BindingDB Entry DOI>
10.7270/Q2M61JSK

> <PMID>
16046123

> <Authors>
Holmes, CP; Li, X; Pan, Y; Xu, C; Bhandari, A; Moody, CM; Miguel, JA; Ferla, SW; De Francisco, MN; Frederick, BT; Zhou, S; Macher, N; Jang, L; Irvine, JD; Grove, JR

> <Institution>
Affymax, Inc.

> <Link to Ligand in BindingDB>
http://www.bindingdb.org/bind/chemsearch/marvin/MolStructure.jsp?monomerid=50171091

> <Link to Ligand-Target Pair in BindingDB>
http://www.bindingdb.org/jsp/dbsearch/PrimarySearch_ki.jsp?energyterm=kJ/mole&tag=pol&polymerid=2622&target=Tyrosine-protein+phosphatase+non-receptor+type+1&column=ki&startPg=0&Increment=50&submit=Sea
rch
http://www.bindingdb.org/jsp/dbsearch/PrimarySearch_ki.jsp?energyterm=kJ/mole&tag=r21&monomerid=50171091&enzyme=Tyrosine-protein+phosphatase+non-receptor+type+1&column=ki&startPg=0&Increment=50&submit
=Search

> <PubChem CID of Ligand>
44404295

> <PubChem SID of Ligand>
104057388

> <ChEMBL ID of Ligand>
CHEMBL198939

> <ZINC ID of Ligand>
ZINC28527622

> <Number of Protein Chains in Target (bigger than 1 implies a multichain complex)>
1

> <BindingDB Target Chain Sequence>
MEMEKEFEQIDKSGSWAAIYQDIRHEASDFPCRVAKLPKNKNRNRYRDVSPFDHSRIKLHQEDNDYINASLIKMEEAQRSYILTQGPLPNTCGHFWEMVWEQKSRGVVMLNRVMEKGSLKCAQYWPQKEEKEMIFEDTNLKLTLISEDIKSYYTVRQLELENLTTQETREILHFHYTTWPDFGVPESPASFLNFLFKVRE
SGSLSPEHGPVVVHCSAGIGRSGTFCLADTCLLLMDKRKDPSSVDIKKVLLEMRKFRMGLIQTADQLRFSYLAVIEGAKFIMGDSSVQDQWKELSHEDLEPPPEHIPPPPRPPKRILEPHNGKCREFFPNHQWVKEETQEDKDCPIKEEKGSPLNAAPYGIESMSQDTEVRSRVVGGSLRGAQAASPAKGEPSLPEKDED
HALSYWKPFLVNMCVATVLTAGAYLCYRFLFNSNT

> <PDB ID(s) of Target Chain>
1BZJ,1G7G,1GFY,1JF7,1KAK,1KAV,1LQF,1NL9,1NNY,1NO6,1NZ7,1OEM,1OEO,1OES,1OET,1OEU,1OEV,1ONY,1ONZ,1PH0,1PXH,1PYN,1Q1M,1Q6J,1Q6M,1Q6N,1Q6P,1Q6S,1Q6T,1QXK,1SUG,1T48,1T49,1T4J,1WAX,1XBO,2AZR,2B07,2BGD,2BGE,
2CM2,2CM3,2CM7,2CM8,2CMA,2CMB,2CMC,2CNE,2CNF,2CNG,2CNH,2CNI,2F6T,2F6V,2F6W,2F6Y,2F6Z,2F70,2F71,2FJN,2H4G,2H4K,2HB1,2HNP,2HNQ,2QBP,2QBQ,2QBR,2QBS,2VEU,2VEV,2VEW,2VEX,2VEY,2ZMM,2ZN7,3A5J,3CWE,3D9C,3EAX,
3EB1,3EU0,3I7Z,3I80,3SME,4BJO,4I8N,4QBW,4Y14,5K9V,5K9W,5KA0,5KA1,5T19,6B90,6NTP,6W30,7KEY,7KLX,7LFO,7MN9,7MNA,8DU7,8G65,8G67,8G68,8G69,8G6A,8SKL

> <UniProt (SwissProt) Recommended Name of Target Chain>
Tyrosine-protein phosphatase non-receptor type 1

> <UniProt (SwissProt) Entry Name of Target Chain>
PTN1_HUMAN

> <UniProt (SwissProt) Primary ID of Target Chain>
P18031

> <UniProt (SwissProt) Secondary ID(s) of Target Chain>
Q5TGD8 Q9BQV9 Q9NQQ4

$$$$
Molecule
  SciTegic10242319433D

 69 72  0  0  0  0            999 V2000
    4.1536   -8.3989   -0.4602 P   0  0
    6.9666    2.9627    0.1048 P   0  0
    5.6678    3.9697    0.4300 C   0  0
    3.1779   -7.8347    0.7715 C   0  0
    1.1888   -1.0817    0.3941 C   0  0
   -0.4650   -0.7641   -0.0748 C   0  0
    2.5202   -6.5000    0.4410 C   0  0
    4.4454    3.1143    0.4314 C   0  0
    1.1642    0.3595   -0.1631 C   0  0
    0.6783   -2.5187   -0.2521 C   0  0
    4.7498   -9.5739   -0.0432 O   0  0
    6.7657    2.3274   -1.1055 O   0  0
    2.5560   -1.2275   -0.4080 C   0  0
   -1.1409   -1.6976   -0.5594 O   0  0
   -1.4291    0.5612    0.0685 C   0  0
    3.9780   -7.6544    1.8792 F   0  0
    5.5799    4.9097   -0.5779 F   0  0
    5.8824    4.5462    1.6586 F   0  0
    2.2162   -8.7956    0.9944 F   0  0
    3.3176   -8.6800   -1.7313 O   0  0
    5.2560   -7.3585   -0.7801 O   0  0
    7.1095    1.8943    1.2197 O   0  0
    8.2675    3.7978    0.0318 O   0  0
    4.1322    2.1983    1.5441 C   0  0
    3.6721    3.1500   -0.6446 C   0  0
    1.4337   -6.3881   -0.3296 C   0  0
    3.0725   -5.3129    1.0582 C   0  0
    2.2723    1.3875    0.1913 C   0  0
    1.3469   -3.9392    0.0227 C   0  0
    0.8274   -5.0326   -0.5583 C   0  0
    3.0869    1.3737    1.4419 C   0  0
    2.5578    2.2599   -0.7666 C   0  0
    2.5176   -4.1203    0.8758 C   0  0
    2.6198   -1.1107   -1.7454 C   0  0
    3.8403   -1.4196    0.3489 C   0  0
   -2.6225    0.4353   -0.5028 C   0  0
   -1.1560    1.9241    0.7606 C   0  0
   -2.0651    2.9019    0.7310 C   0  0
   -3.6168    1.5255   -0.5037 C   0  0
    5.0103   -1.4553   -0.2753 C   0  0
    3.9308   -1.1648   -2.4198 C   0  0
   -3.3453    2.6956    0.0702 C   0  0
    5.0569   -1.3167   -1.7213 C   0  0
    1.1658    0.2686   -1.2494 H   0  0
    0.2218    0.7990    0.1638 H   0  0
   -0.3611   -2.6230    0.0591 H   0  0
    0.7226   -2.3821   -1.3326 H   0  0
    2.5873   -9.4036   -1.5176 H   0  0
    4.8101   -6.4558   -1.0783 H   0  0
    7.2668    2.3697    2.1427 H   0  0
    8.1822    4.5134   -0.7318 H   0  0
    4.7492    2.1945    2.4427 H   0  0
    3.8863    3.8618   -1.4419 H   0  0
    0.9914   -7.2726   -0.7880 H   0  0
    3.9604   -5.3995    1.6844 H   0  0
   -0.0454   -4.9356   -1.2041 H   0  0
    2.8321    0.7002    2.2602 H   0  0
    1.9344    2.2995   -1.6598 H   0  0
    2.9479   -3.2531    1.3767 H   0  0
    1.7084   -0.9767   -2.3282 H   0  0
    3.8096   -1.5319    1.4326 H   0  0
   -2.8758   -0.5072   -0.9882 H   0  0
   -0.2098    2.0848    1.2773 H   0  0
   -1.8471    3.8594    1.2042 H   0  0
   -4.5851    1.3710   -0.9798 H   0  0
    5.9311   -1.5877    0.2928 H   0  0
    3.9799   -1.0794   -3.5054 H   0  0
   -4.0816    3.4989    0.0452 H   0  0
    6.0167   -1.3370   -2.2375 H   0  0
  2  3  1  0
  3  8  1  0
  4  1  1  0
  5 10  1  0
  6  5  1  0
  7  4  1  0
  8 25  2  0
  9  5  1  0
 10 29  1  0
 11  1  2  0
 12  2  2  0
 13  5  1  0
 14  6  2  0
 15  6  1  0
 16  4  1  0
 17  3  1  0
 18  3  1  0
 19  4  1  0
 20  1  1  0
 21  1  1  0
 22  2  1  0
 23  2  1  0
 24 31  2  0
 25 32  1  0
 26  7  2  0
 27  7  1  0
 28  9  1  0
 29 33  1  0
 30 26  1  0
 31 28  1  0
 32 28  2  0
 33 27  2  0
 34 13  2  0
 35 13  1  0
 36 15  2  0
 37 15  1  0
 38 37  2  0
 39 36  1  0
 40 35  2  0
 41 34  1  0
 42 38  1  0
 43 40  1  0
 29 30  2  0
 41 43  2  0
 24  8  1  0
 39 42  2  0
  9 44  1  0
  9 45  1  0
 10 46  1  0
 10 47  1  0
 20 48  1  0
 21 49  1  0
 22 50  1  0
 23 51  1  0
 24 52  1  0
 25 53  1  0
 26 54  1  0
 27 55  1  0
 30 56  1  0
 31 57  1  0
 32 58  1  0
 33 59  1  0
 34 60  1  0
 35 61  1  0
 36 62  1  0
 37 63  1  0
 38 64  1  0
 39 65  1  0
 40 66  1  0
 41 67  1  0
 42 68  1  0
 43 69  1  0
M  END
> <Name>
Molecule

> <Clean Energy>
188.589

> <From>
www.bindingDB.org

> <BindingDB Reactant_set_id>
50026889

> <Ligand InChI>
InChI=1S/C30H26F4O7P2/c31-29(32,42(36,37)38)25-15-11-21(12-16-25)19-28(24-9-5-2-6-10-24,27(35)23-7-3-1-4-8-23)20-22-13-17-26(18-14-22)30(33,34)43(39,40)41/h1-18H,19-20H2,(H2,36,37,38)(H2,39,40,41)

> <Ligand InChI Key>
IZDWSIZSMHRZPZ-UHFFFAOYSA-N

> <BindingDB MonomerID>
50142311

> <BindingDB Ligand Name>
CHEMBL266056::[(4-{2-[4-(Difluoro-phosphono-methyl)-benzyl]-3-oxo-2,3-diphenyl-propyl}-phenyl)-difluoro-methyl]-phosphonic acid

> <Target Name>
Tyrosine-protein phosphatase non-receptor type 1

> <Target Source Organism According to Curator or DataSource>
Homo sapiens

> <IC50 (nM)>
60

> <Curation/DataSource>
ChEMBL

> <Article DOI>
10.1016/j.bmcl.2003.11.048

> <BindingDB Entry DOI>
10.7270/Q28C9VPM

> <PMID>
15013019

> <Authors>
Dufresne, C; Roy, P; Wang, Z; Asante-Appiah, E; Cromlish, W; Boie, Y; Forghani, F; Desmarais, S; Wang, Q; Skorey, K; Waddleton, D; Ramachandran, C; Kennedy, BP; Xu, L; Gordon, R; Chan, CC; Leblanc, Y

> <Institution>
Merck Frosst Centre for Therapeutic Research

> <Link to Ligand in BindingDB>
http://www.bindingdb.org/bind/chemsearch/marvin/MolStructure.jsp?monomerid=50142311

> <Link to Ligand-Target Pair in BindingDB>
http://www.bindingdb.org/jsp/dbsearch/PrimarySearch_ki.jsp?energyterm=kJ/mole&tag=pol&polymerid=2622&target=Tyrosine-protein+phosphatase+non-receptor+type+1&column=ki&startPg=0&Increment=50&submit=Sea
rch
http://www.bindingdb.org/jsp/dbsearch/PrimarySearch_ki.jsp?energyterm=kJ/mole&tag=r21&monomerid=50142311&enzyme=Tyrosine-protein+phosphatase+non-receptor+type+1&column=ki&startPg=0&Increment=50&submit
=Search

> <PubChem CID of Ligand>
21265715

> <PubChem SID of Ligand>
104031702

> <ChEMBL ID of Ligand>
CHEMBL266056

> <ZINC ID of Ligand>
ZINC04426013

> <Number of Protein Chains in Target (bigger than 1 implies a multichain complex)>
1

> <BindingDB Target Chain Sequence>
MEMEKEFEQIDKSGSWAAIYQDIRHEASDFPCRVAKLPKNKNRNRYRDVSPFDHSRIKLHQEDNDYINASLIKMEEAQRSYILTQGPLPNTCGHFWEMVWEQKSRGVVMLNRVMEKGSLKCAQYWPQKEEKEMIFEDTNLKLTLISEDIKSYYTVRQLELENLTTQETREILHFHYTTWPDFGVPESPASFLNFLFKVRE
SGSLSPEHGPVVVHCSAGIGRSGTFCLADTCLLLMDKRKDPSSVDIKKVLLEMRKFRMGLIQTADQLRFSYLAVIEGAKFIMGDSSVQDQWKELSHEDLEPPPEHIPPPPRPPKRILEPHNGKCREFFPNHQWVKEETQEDKDCPIKEEKGSPLNAAPYGIESMSQDTEVRSRVVGGSLRGAQAASPAKGEPSLPEKDED
HALSYWKPFLVNMCVATVLTAGAYLCYRFLFNSNT

> <PDB ID(s) of Target Chain>
1BZJ,1G7G,1GFY,1JF7,1KAK,1KAV,1LQF,1NL9,1NNY,1NO6,1NZ7,1OEM,1OEO,1OES,1OET,1OEU,1OEV,1ONY,1ONZ,1PH0,1PXH,1PYN,1Q1M,1Q6J,1Q6M,1Q6N,1Q6P,1Q6S,1Q6T,1QXK,1SUG,1T48,1T49,1T4J,1WAX,1XBO,2AZR,2B07,2BGD,2BGE,
2CM2,2CM3,2CM7,2CM8,2CMA,2CMB,2CMC,2CNE,2CNF,2CNG,2CNH,2CNI,2F6T,2F6V,2F6W,2F6Y,2F6Z,2F70,2F71,2FJN,2H4G,2H4K,2HB1,2HNP,2HNQ,2QBP,2QBQ,2QBR,2QBS,2VEU,2VEV,2VEW,2VEX,2VEY,2ZMM,2ZN7,3A5J,3CWE,3D9C,3EAX,
3EB1,3EU0,3I7Z,3I80,3SME,4BJO,4I8N,4QBW,4Y14,5K9V,5K9W,5KA0,5KA1,5T19,6B90,6NTP,6W30,7KEY,7KLX,7LFO,7MN9,7MNA,8DU7,8G65,8G67,8G68,8G69,8G6A,8SKL

> <UniProt (SwissProt) Recommended Name of Target Chain>
Tyrosine-protein phosphatase non-receptor type 1

> <UniProt (SwissProt) Entry Name of Target Chain>
PTN1_HUMAN

> <UniProt (SwissProt) Primary ID of Target Chain>
P18031

> <UniProt (SwissProt) Secondary ID(s) of Target Chain>
Q5TGD8 Q9BQV9 Q9NQQ4

$$$$
Molecule
  SciTegic10242319433D

 79 82  0  0  0  0            999 V2000
    0.1810   -1.8096   -0.0125 C   0  0
    6.4837    2.4461    0.3566 P   0  0
    2.2156   -9.3211    0.5529 P   0  0
    5.0293    3.2124    0.1278 C   0  0
    1.1999   -8.3638   -0.3589 C   0  0
   -1.2980   -2.0794   -0.6712 C   0  0
    1.2625   -2.2499   -0.9958 C   0  0
    0.9209   -6.9789    0.2264 C   0  0
    3.8527    2.2826    0.3053 C   0  0
    0.4638   -2.7047    1.3208 C   0  0
    0.3584   -0.2295    0.1961 C   0  0
    6.5604    1.9732    1.6507 O   0  0
    1.6260   -9.6036    1.7668 O   0  0
   -2.5900   -1.3044   -0.5361 O   0  0
    2.5504   -2.5172   -0.4977 O   0  0
    1.0079   -2.4134   -2.1934 O   0  0
   -1.3701   -3.0203   -1.4673 O   0  0
    0.0080   -9.0003   -0.6303 F   0  0
    1.8223   -8.1462   -1.5736 F   0  0
    4.9624    3.7192   -1.1584 F   0  0
    4.8870    4.2908    0.9742 F   0  0
    7.6317    3.4543    0.1087 O   0  0
    6.6253    1.2682   -0.6481 O   0  0
    3.5811   -8.6164    0.7784 O   0  0
    2.4664  -10.6448   -0.2198 O   0  0
    4.0277    0.8470    0.6231 C   0  0
   -0.2052   -6.2242   -0.2903 C   0  0
    2.6346    2.7623    0.1031 C   0  0
    1.7255   -6.4122    1.1193 C   0  0
    1.6379    0.5693    0.4021 C   0  0
    0.5204   -4.2774    1.0171 C   0  0
   -2.6953   -0.1234    0.3045 C   0  0
    3.4948   -2.8857   -1.5112 C   0  0
    2.9715    0.0305    0.6744 C   0  0
   -0.3923   -4.9613    0.0837 C   0  0
    1.5002    1.8698    0.1451 C   0  0
    1.5155   -4.9998    1.5389 C   0  0
   -3.9478    0.6647    0.1041 C   0  0
    4.5434   -3.7276   -0.8393 C   0  0
   -3.9292    1.9709    0.3716 C   0  0
   -5.1756    0.0291   -0.3620 C   0  0
    4.3497   -4.1054    0.4193 C   0  0
    5.7349   -4.1794   -1.5547 C   0  0
   -6.2812    0.7597   -0.5075 C   0  0
    5.3015   -4.9735    1.0971 C   0  0
    6.6107   -4.9767   -0.9399 C   0  0
   -5.1343    2.7766    0.1994 C   0  0
   -6.2597    2.1993   -0.2147 C   0  0
    6.3807   -5.3985    0.4481 C   0  0
    1.4186   -2.3988    1.7486 H   0  0
   -0.3336   -2.5182    2.0402 H   0  0
   -0.0993    0.2141   -0.6881 H   0  0
   -0.2480   -0.0016    1.0728 H   0  0
    7.5742    3.8158   -0.8754 H   0  0
    5.8450    0.5821   -0.4960 H   0  0
    4.0357   -8.4280   -0.1492 H   0  0
    1.5526  -11.1380   -0.3760 H   0  0
    5.0256    0.4535    0.8166 H   0  0
   -0.8999   -6.6933   -0.9869 H   0  0
    2.4895    3.8244   -0.0938 H   0  0
    2.5465   -6.9868    1.5482 H   0  0
   -2.6555   -0.4416    1.3463 H   0  0
   -1.8460    0.5252    0.0895 H   0  0
    2.9996   -3.4580   -2.2956 H   0  0
    3.9492   -1.9940   -1.9431 H   0  0
    3.1012   -1.0244    0.9161 H   0  0
   -1.2481   -4.4150   -0.3129 H   0  0
    0.5035    2.2709   -0.0384 H   0  0
    2.1792   -4.5511    2.2780 H   0  0
   -3.0092    2.4396    0.7207 H   0  0
   -5.1888   -1.0368   -0.5898 H   0  0
    3.4643   -3.7601    0.9529 H   0  0
    5.9073   -3.8669   -2.5846 H   0  0
   -7.2039    0.2876   -0.8447 H   0  0
    5.1302   -5.2733    2.1310 H   0  0
    7.5005   -5.3164   -1.4700 H   0  0
   -5.1125    3.8461    0.4091 H   0  0
   -7.1649    2.7941   -0.3366 H   0  0
    7.0928   -6.0579    0.9443 H   0  0
  2  4  1  0
  3  5  1  0
  4  9  1  0
  5  8  1  0
  6  1  1  0
  7  1  1  0
  8 29  2  0
  9 28  2  0
 10  1  1  0
 11  1  1  0
 12  2  2  0
 13  3  2  0
 14  6  1  0
 15  7  1  0
 16  7  2  0
 17  6  2  0
 18  5  1  0
 19  5  1  0
 20  4  1  0
 21  4  1  0
 22  2  1  0
 23  2  1  0
 24  3  1  0
 25  3  1  0
 26 34  2  0
 27 35  2  0
 28 36  1  0
 29 37  1  0
 30 11  1  0
 31 10  1  0
 32 14  1  0
 33 15  1  0
 34 30  1  0
 35 31  1  0
 36 30  2  0
 37 31  2  0
 38 32  1  0
 39 33  1  0
 40 38  2  0
 41 38  1  0
 42 39  2  0
 43 39  1  0
 44 41  2  0
 45 42  1  0
 46 43  2  0
 47 40  1  0
 48 44  1  0
 49 46  1  0
 26  9  1  0
 27  8  1  0
 45 49  2  0
 47 48  2  0
 10 50  1  0
 10 51  1  0
 11 52  1  0
 11 53  1  0
 22 54  1  0
 23 55  1  0
 24 56  1  0
 25 57  1  0
 26 58  1  0
 27 59  1  0
 28 60  1  0
 29 61  1  0
 32 62  1  0
 32 63  1  0
 33 64  1  0
 33 65  1  0
 34 66  1  0
 35 67  1  0
 36 68  1  0
 37 69  1  0
 40 70  1  0
 41 71  1  0
 42 72  1  0
 43 73  1  0
 44 74  1  0
 45 75  1  0
 46 76  1  0
 47 77  1  0
 48 78  1  0
 49 79  1  0
M  END
> <Name>
Molecule

> <Clean Energy>
94.4815

> <From>
www.bindingDB.org

> <BindingDB Reactant_set_id>
50026892

> <Ligand InChI>
InChI=1S/C33H30F4O10P2/c34-32(35,48(40,41)42)27-15-11-23(12-16-27)19-31(29(38)46-21-25-7-3-1-4-8-25,30(39)47-22-26-9-5-2-6-10-26)20-24-13-17-28(18-14-24)33(36,37)49(43,44)45/h1-18H,19-22H2,(H2,40,41,4
2)(H2,43,44,45)

> <Ligand InChI Key>
SWCQFYUCSUACPW-UHFFFAOYSA-N

> <BindingDB MonomerID>
50142307

> <BindingDB Ligand Name>
2,2-Bis-[4-(difluoro-phosphono-methyl)-benzyl]-malonic acid dibenzyl ester::CHEMBL267954

> <Target Name>
Tyrosine-protein phosphatase non-receptor type 1

> <Target Source Organism According to Curator or DataSource>
Homo sapiens

> <IC50 (nM)>
60

> <Curation/DataSource>
ChEMBL

> <Article DOI>
10.1016/j.bmcl.2003.11.048

> <BindingDB Entry DOI>
10.7270/Q28C9VPM

> <PMID>
15013019

> <Authors>
Dufresne, C; Roy, P; Wang, Z; Asante-Appiah, E; Cromlish, W; Boie, Y; Forghani, F; Desmarais, S; Wang, Q; Skorey, K; Waddleton, D; Ramachandran, C; Kennedy, BP; Xu, L; Gordon, R; Chan, CC; Leblanc, Y

> <Institution>
Merck Frosst Centre for Therapeutic Research

> <Link to Ligand in BindingDB>
http://www.bindingdb.org/bind/chemsearch/marvin/MolStructure.jsp?monomerid=50142307

> <Link to Ligand-Target Pair in BindingDB>
http://www.bindingdb.org/jsp/dbsearch/PrimarySearch_ki.jsp?energyterm=kJ/mole&tag=pol&polymerid=2622&target=Tyrosine-protein+phosphatase+non-receptor+type+1&column=ki&startPg=0&Increment=50&submit=Sea
rch
http://www.bindingdb.org/jsp/dbsearch/PrimarySearch_ki.jsp?energyterm=kJ/mole&tag=r21&monomerid=50142307&enzyme=Tyrosine-protein+phosphatase+non-receptor+type+1&column=ki&startPg=0&Increment=50&submit
=Search

> <PubChem CID of Ligand>
15485891

> <PubChem SID of Ligand>
104031698

> <ChEMBL ID of Ligand>
CHEMBL267954

> <ZINC ID of Ligand>
ZINC25991440

> <Number of Protein Chains in Target (bigger than 1 implies a multichain complex)>
1

> <BindingDB Target Chain Sequence>
MEMEKEFEQIDKSGSWAAIYQDIRHEASDFPCRVAKLPKNKNRNRYRDVSPFDHSRIKLHQEDNDYINASLIKMEEAQRSYILTQGPLPNTCGHFWEMVWEQKSRGVVMLNRVMEKGSLKCAQYWPQKEEKEMIFEDTNLKLTLISEDIKSYYTVRQLELENLTTQETREILHFHYTTWPDFGVPESPASFLNFLFKVRE
SGSLSPEHGPVVVHCSAGIGRSGTFCLADTCLLLMDKRKDPSSVDIKKVLLEMRKFRMGLIQTADQLRFSYLAVIEGAKFIMGDSSVQDQWKELSHEDLEPPPEHIPPPPRPPKRILEPHNGKCREFFPNHQWVKEETQEDKDCPIKEEKGSPLNAAPYGIESMSQDTEVRSRVVGGSLRGAQAASPAKGEPSLPEKDED
HALSYWKPFLVNMCVATVLTAGAYLCYRFLFNSNT

> <PDB ID(s) of Target Chain>
1BZJ,1G7G,1GFY,1JF7,1KAK,1KAV,1LQF,1NL9,1NNY,1NO6,1NZ7,1OEM,1OEO,1OES,1OET,1OEU,1OEV,1ONY,1ONZ,1PH0,1PXH,1PYN,1Q1M,1Q6J,1Q6M,1Q6N,1Q6P,1Q6S,1Q6T,1QXK,1SUG,1T48,1T49,1T4J,1WAX,1XBO,2AZR,2B07,2BGD,2BGE,
2CM2,2CM3,2CM7,2CM8,2CMA,2CMB,2CMC,2CNE,2CNF,2CNG,2CNH,2CNI,2F6T,2F6V,2F6W,2F6Y,2F6Z,2F70,2F71,2FJN,2H4G,2H4K,2HB1,2HNP,2HNQ,2QBP,2QBQ,2QBR,2QBS,2VEU,2VEV,2VEW,2VEX,2VEY,2ZMM,2ZN7,3A5J,3CWE,3D9C,3EAX,
3EB1,3EU0,3I7Z,3I80,3SME,4BJO,4I8N,4QBW,4Y14,5K9V,5K9W,5KA0,5KA1,5T19,6B90,6NTP,6W30,7KEY,7KLX,7LFO,7MN9,7MNA,8DU7,8G65,8G67,8G68,8G69,8G6A,8SKL

> <UniProt (SwissProt) Recommended Name of Target Chain>
Tyrosine-protein phosphatase non-receptor type 1

> <UniProt (SwissProt) Entry Name of Target Chain>
PTN1_HUMAN

> <UniProt (SwissProt) Primary ID of Target Chain>
P18031

> <UniProt (SwissProt) Secondary ID(s) of Target Chain>
Q5TGD8 Q9BQV9 Q9NQQ4

$$$$
Molecule
  SciTegic10242319433D

 57 61  0  0  0  0            999 V2000
   14.5631  -25.6937   -0.1456 C   0  0
   14.5224  -27.0697   -0.6635 C   0  0
   15.5754  -27.8750   -0.5189 C   0  0
   16.7864  -27.3776    0.1460 C   0  0
   16.8137  -26.1370    0.6153 C   0  0
   15.6615  -25.2776    0.4746 C   0  0
   13.3293  -24.7996   -0.3589 C   0  0
   18.0157  -28.2286    0.3144 C   0  0  1  0  0  0
   13.1613  -23.3980    0.4007 C   0  0  2  0  0  0
   11.7802  -22.7780    0.2196 N   0  0
   14.2903  -22.3649    0.1640 C   0  0
   15.4922  -22.6823   -0.1213 N   0  0
   14.1468  -20.9340    0.2978 N   0  0
   15.4280  -20.4640    0.0701 C   0  0
   16.2479  -21.5416   -0.1882 C   0  0
   17.5409  -21.4409   -0.4238 C   0  0
   18.1246  -20.0863   -0.4211 C   0  0
   17.3387  -19.0256   -0.1795 C   0  0
   15.8892  -19.2120    0.0897 C   0  0
   17.9347  -29.9305   -0.3663 S   0  0
   19.6529  -29.7969   -0.0223 N   0  0
   20.2130  -28.5329   -0.0032 C   0  0
   19.2595  -27.4724   -0.1370 C   0  0
   18.4730  -31.2808    0.0692 O   0  0
   16.7980  -30.2125    0.5958 O   0  0
   21.4204  -28.3299    0.1666 O   0  0
   10.4950  -23.8311    0.8722 S   0  0
    8.8215  -24.2834    0.4628 C   0  0
   10.6170  -24.5925   -0.4308 O   0  0
    9.8076  -22.4963    1.0929 O   0  0
    7.8073  -23.4166    0.4881 C   0  0
    6.4507  -23.8815    0.1205 C   0  0
    6.2480  -25.1506   -0.2310 C   0  0
    7.3594  -26.0897   -0.2532 C   0  0
    8.5787  -25.6775    0.0756 C   0  0
    5.1165  -22.7858    0.1345 Cl  0  0
   13.6271  -27.4330   -1.1680 H   0  0
   15.5373  -28.8982   -0.8928 H   0  0
   17.7108  -25.7643    1.1098 H   0  0
   15.6939  -24.2684    0.8852 H   0  0
   12.4635  -25.4022   -0.0845 H   0  0
   13.2939  -24.5760   -1.4252 H   0  0
   18.1318  -28.3553    1.3908 H   0  0
   13.2225  -23.6435    1.4609 H   0  0
   11.6042  -22.6219   -0.8243 H   0  0
   13.2631  -20.3729    0.5195 H   0  0
   18.1536  -22.3224   -0.6128 H   0  0
   19.1883  -19.9476   -0.6142 H   0  0
   17.7657  -18.0227   -0.1807 H   0  0
   15.2334  -18.3656    0.2936 H   0  0
   20.2471  -30.6666    0.1664 H   0  0
   19.4876  -26.6303    0.5164 H   0  0
   19.1763  -27.1224   -1.1659 H   0  0
    7.9756  -22.3789    0.7760 H   0  0
    5.2471  -25.4862   -0.5026 H   0  0
    7.1920  -27.1282   -0.5388 H   0  0
    9.4088  -26.3836    0.0576 H   0  0
 17 18  2  0
  9  7  1  0
 18 19  1  0
 19 14  2  0
  8 20  1  0
  4  5  2  0
  9 10  1  0
  2  3  2  0
  9 11  1  0
 20 21  1  0
 21 22  1  0
 22 23  1  0
  8 23  1  0
 11 12  2  0
 20 24  2  0
  5  6  1  0
 20 25  2  0
  6  1  2  0
 22 26  2  0
 12 15  1  0
 10 27  1  0
 14 13  1  0
 27 28  1  0
 13 11  1  0
 27 29  2  0
  1  2  1  0
 27 30  2  0
  1  7  1  0
 28 31  2  0
 14 15  1  0
 31 32  1  0
  3  4  1  0
 32 33  2  0
 15 16  2  0
 33 34  1  0
  4  8  1  0
 34 35  2  0
 35 28  1  0
 16 17  1  0
 32 36  1  0
  2 37  1  0
  3 38  1  0
  5 39  1  0
  6 40  1  0
  7 41  1  0
  7 42  1  0
  8 43  1  0
  9 44  1  0
 10 45  1  0
 13 46  1  0
 16 47  1  0
 17 48  1  0
 18 49  1  0
 19 50  1  0
 21 51  1  0
 23 52  1  0
 23 53  1  0
 31 54  1  0
 33 55  1  0
 34 56  1  0
 35 57  1  0
M  END
> <Name>
Molecule

> <Clean Energy>
224.54

> <From>
www.bindingDB.org

> <BindingDB Reactant_set_id>
50350926

> <Ligand InChI>
InChI=1S/C24H21ClN4O5S2/c25-17-4-3-5-18(13-17)35(31,32)28-21(24-26-19-6-1-2-7-20(19)27-24)12-15-8-10-16(11-9-15)22-14-23(30)29-36(22,33)34/h1-11,13,21-22,28H,12,14H2,(H,26,27)(H,29,30)

> <Ligand InChI Key>
JJXLFSXLEHVLEP-UHFFFAOYSA-N

> <BindingDB MonomerID>
50189648

> <BindingDB Ligand Name>
CHEMBL212147::N-{1-(1H-benzoimidazol-2-yl)-2-[4-(1,1,3-trioxo-1lambda*6*-isothiazolidin-5-yl)-phenyl]-ethyl}-3-chloro-benzenesulfonamide

> <Target Name>
Tyrosine-protein phosphatase non-receptor type 1

> <Target Source Organism According to Curator or DataSource>
Homo sapiens

> <IC50 (nM)>
60

> <Curation/DataSource>
ChEMBL

> <Article DOI>
10.1021/jm0600904

> <BindingDB Entry DOI>
10.7270/Q2JQ10M8

> <PMID>
16789735

> <Authors>
Combs, AP; Zhu, W; Crawley, ML; Glass, B; Polam, P; Sparks, RB; Modi, D; Takvorian, A; McLaughlin, E; Yue, EW; Wasserman, Z; Bower, M; Wei, M; Rupar, M; Ala, PJ; Reid, BM; Ellis, D; Gonneville, L; Emm
, T; Taylor, N; Yeleswaram, S; Li, Y; Wynn, R; Burn, TC; Hollis, G; Liu, PC; Metcalf, B

> <Institution>
Incyte Corporation

> <Link to Ligand in BindingDB>
http://www.bindingdb.org/bind/chemsearch/marvin/MolStructure.jsp?monomerid=50189648

> <Link to Ligand-Target Pair in BindingDB>
http://www.bindingdb.org/jsp/dbsearch/PrimarySearch_ki.jsp?energyterm=kJ/mole&tag=pol&polymerid=2622&target=Tyrosine-protein+phosphatase+non-receptor+type+1&column=ki&startPg=0&Increment=50&submit=Sea
rch
http://www.bindingdb.org/jsp/dbsearch/PrimarySearch_ki.jsp?energyterm=kJ/mole&tag=r21&monomerid=50189648&enzyme=Tyrosine-protein+phosphatase+non-receptor+type+1&column=ki&startPg=0&Increment=50&submit
=Search

> <PubChem CID of Ligand>
21879031

> <PubChem SID of Ligand>
104073169

> <ChEMBL ID of Ligand>
CHEMBL212147

> <ZINC ID of Ligand>
ZINC36088728

> <Number of Protein Chains in Target (bigger than 1 implies a multichain complex)>
1

> <BindingDB Target Chain Sequence>
MEMEKEFEQIDKSGSWAAIYQDIRHEASDFPCRVAKLPKNKNRNRYRDVSPFDHSRIKLHQEDNDYINASLIKMEEAQRSYILTQGPLPNTCGHFWEMVWEQKSRGVVMLNRVMEKGSLKCAQYWPQKEEKEMIFEDTNLKLTLISEDIKSYYTVRQLELENLTTQETREILHFHYTTWPDFGVPESPASFLNFLFKVRE
SGSLSPEHGPVVVHCSAGIGRSGTFCLADTCLLLMDKRKDPSSVDIKKVLLEMRKFRMGLIQTADQLRFSYLAVIEGAKFIMGDSSVQDQWKELSHEDLEPPPEHIPPPPRPPKRILEPHNGKCREFFPNHQWVKEETQEDKDCPIKEEKGSPLNAAPYGIESMSQDTEVRSRVVGGSLRGAQAASPAKGEPSLPEKDED
HALSYWKPFLVNMCVATVLTAGAYLCYRFLFNSNT

> <PDB ID(s) of Target Chain>
1BZJ,1G7G,1GFY,1JF7,1KAK,1KAV,1LQF,1NL9,1NNY,1NO6,1NZ7,1OEM,1OEO,1OES,1OET,1OEU,1OEV,1ONY,1ONZ,1PH0,1PXH,1PYN,1Q1M,1Q6J,1Q6M,1Q6N,1Q6P,1Q6S,1Q6T,1QXK,1SUG,1T48,1T49,1T4J,1WAX,1XBO,2AZR,2B07,2BGD,2BGE,
2CM2,2CM3,2CM7,2CM8,2CMA,2CMB,2CMC,2CNE,2CNF,2CNG,2CNH,2CNI,2F6T,2F6V,2F6W,2F6Y,2F6Z,2F70,2F71,2FJN,2H4G,2H4K,2HB1,2HNP,2HNQ,2QBP,2QBQ,2QBR,2QBS,2VEU,2VEV,2VEW,2VEX,2VEY,2ZMM,2ZN7,3A5J,3CWE,3D9C,3EAX,
3EB1,3EU0,3I7Z,3I80,3SME,4BJO,4I8N,4QBW,4Y14,5K9V,5K9W,5KA0,5KA1,5T19,6B90,6NTP,6W30,7KEY,7KLX,7LFO,7MN9,7MNA,8DU7,8G65,8G67,8G68,8G69,8G6A,8SKL

> <UniProt (SwissProt) Recommended Name of Target Chain>
Tyrosine-protein phosphatase non-receptor type 1

> <UniProt (SwissProt) Entry Name of Target Chain>
PTN1_HUMAN

> <UniProt (SwissProt) Primary ID of Target Chain>
P18031

> <UniProt (SwissProt) Secondary ID(s) of Target Chain>
Q5TGD8 Q9BQV9 Q9NQQ4

$$$$
Molecule
  SciTegic10242319433D

 57 62  0  0  0  0            999 V2000
    2.2757   -7.9569    0.0146 C   0  0
    1.5463   -6.8352    0.0038 C   0  0
    2.3031   -5.4389   -0.0220 C   0  0
    1.3099   -9.3167    0.0335 S   0  0
    3.6824   -5.5400   -0.0263 C   0  0
    0.2769   -1.4119    0.0248 C   0  0
    3.6846   -7.9896    0.0081 C   0  0
    1.5649   -4.0068   -0.0265 C   0  0
    4.3615   -6.8586   -0.0127 C   0  0
   -0.5271   -0.1923    0.1436 O   0  0
    0.0004   -7.2490   -0.0012 C   0  0
   -0.1586   -8.5717    0.0165 C   0  0
   -0.3781   -2.5366    0.3204 C   0  0
    1.7340   -1.5654   -0.3877 C   0  0
   -0.0148    1.1466   -0.1087 C   0  0  1  0  0  0
   -1.2415    2.0313    0.0109 C   0  0
    2.2676   -2.7750   -0.3929 C   0  0
    0.2875   -3.8588    0.2940 C   0  0
    1.1492    1.6002    0.8626 C   0  0
   -1.2039    3.0849    0.6553 O   0  0
    4.6067   -9.6497    0.0244 Br  0  0
   -2.2134   -2.4317    0.8059 Br  0  0
    2.9144   -0.1867   -0.9887 Br  0  0
   -2.4639    1.5576   -0.4488 O   0  0
    1.8756    2.9118    0.4684 C   0  0
    4.6146   -4.3834   -0.0212 C   0  0
    5.8211   -6.9325   -0.0156 C   0  0
   -1.1956   -6.4155   -0.0286 C   0  0
   -1.4519   -9.2271    0.0153 C   0  0
    3.1379    3.0705    0.8691 C   0  0
    1.2646    3.9573   -0.3762 C   0  0
    5.9384   -4.5190   -0.0167 C   0  0
    6.5628   -5.8305   -0.0182 C   0  0
   -2.4037   -6.9885   -0.0295 C   0  0
   -2.5415   -8.4619   -0.0057 C   0  0
    3.8998    4.2656    0.4889 C   0  0
    1.9551    5.0446   -0.7161 C   0  0
    3.3357    5.2061   -0.2652 C   0  0
    0.3496    1.1928   -1.1349 H   0  0
    3.3118   -2.8624   -0.6933 H   0  0
   -0.2953   -4.7443    0.5479 H   0  0
    0.7225    1.7385    1.8560 H   0  0
    1.8910    0.8021    0.8930 H   0  0
   -2.3939    1.3443   -1.4746 H   0  0
    4.1950   -3.3774   -0.0213 H   0  0
    6.3088   -7.9073   -0.0156 H   0  0
   -1.1052   -5.3294   -0.0483 H   0  0
   -1.5301  -10.3142    0.0311 H   0  0
    3.6084    2.3045    1.4854 H   0  0
    0.2388    3.8384   -0.7249 H   0  0
    6.5666   -3.6283   -0.0119 H   0  0
    7.6498   -5.9112   -0.0214 H   0  0
   -3.2967   -6.3638   -0.0479 H   0  0
   -3.5310   -8.9189   -0.0054 H   0  0
    4.9300    4.3834    0.8249 H   0  0
    1.4898    5.8148   -1.3312 H   0  0
    3.9019    6.0943   -0.5458 H   0  0
  2  1  2  0
  3  2  1  0
  4  1  1  0
  5  9  1  0
  6 13  2  0
  7  1  1  0
  8  3  1  0
  9  7  2  0
 10  6  1  0
 11  2  1  0
 12  4  1  0
 13 18  1  0
 14 17  2  0
 15 10  1  0
 15 16  1  0
 17  8  1  0
 18  8  2  0
 15 19  1  0
 20 16  2  0
 21  7  1  0
 22 13  1  0
 23 14  1  0
 24 16  1  0
 25 19  1  0
 26  5  1  0
 27  9  1  0
 28 11  1  0
 29 12  1  0
 30 25  2  0
 31 25  1  0
 32 33  1  0
 33 27  2  0
 34 28  2  0
 35 29  2  0
 36 30  1  0
 37 31  2  0
 38 37  1  0
 12 11  2  0
  5  3  2  0
 34 35  1  0
 32 26  2  0
 14  6  1  0
 36 38  2  0
 15 39  1  0
 17 40  1  0
 18 41  1  0
 19 42  1  0
 19 43  1  0
 24 44  1  0
 26 45  1  0
 27 46  1  0
 28 47  1  0
 29 48  1  0
 30 49  1  0
 31 50  1  0
 32 51  1  0
 33 52  1  0
 34 53  1  0
 35 54  1  0
 36 55  1  0
 37 56  1  0
 38 57  1  0
M  END
> <Name>
Molecule

> <Clean Energy>
72.1217

> <From>
www.bindingDB.org

> <BindingDB Reactant_set_id>
50139766

> <Ligand InChI>
InChI=1S/C31H19Br3O3S/c32-22-15-18(16-23(33)29(22)37-24(31(35)36)14-17-8-2-1-3-9-17)26-19-10-4-5-11-20(19)28(34)30-27(26)21-12-6-7-13-25(21)38-30/h1-13,15-16,24H,14H2,(H,35,36)/t24-/m1/s1

> <Ligand InChI Key>
HNKQMVOZECJOHN-XMMPIXPASA-N

> <BindingDB MonomerID>
50079857

> <BindingDB Ligand Name>
(R)-2-[2,6-Dibromo-4-(6-bromo-benzo[b]naphtho[2,3-d]thiophen-11-yl)-phenoxy]-3-phenyl-propionic acid::CHEMBL290496

> <Target Name>
Tyrosine-protein phosphatase non-receptor type 1

> <Target Source Organism According to Curator or DataSource>
Homo sapiens

> <IC50 (nM)>
61

> <Curation/DataSource>
ChEMBL

> <Article DOI>
10.1021/jm990260v

> <BindingDB Entry DOI>
10.7270/Q2DF6QCQ

> <PMID>
10464006

> <Authors>
Wrobel, J; Sredy, J; Moxham, C; Dietrich, A; Li, Z; Sawicki, DR; Seestaller, L; Wu, L; Katz, A; Sullivan, D; Tio, C; Zhang, ZY

> <Institution>
Wyeth-Ayerst Research

> <Link to Ligand in BindingDB>
http://www.bindingdb.org/bind/chemsearch/marvin/MolStructure.jsp?monomerid=50079857

> <Link to Ligand-Target Pair in BindingDB>
http://www.bindingdb.org/jsp/dbsearch/PrimarySearch_ki.jsp?energyterm=kJ/mole&tag=pol&polymerid=2622&target=Tyrosine-protein+phosphatase+non-receptor+type+1&column=ki&startPg=0&Increment=50&submit=Sea
rch
http://www.bindingdb.org/jsp/dbsearch/PrimarySearch_ki.jsp?energyterm=kJ/mole&tag=r21&monomerid=50079857&enzyme=Tyrosine-protein+phosphatase+non-receptor+type+1&column=ki&startPg=0&Increment=50&submit
=Search

> <PubChem CID of Ligand>
9810403

> <PubChem SID of Ligand>
103971990

> <ChEMBL ID of Ligand>
CHEMBL290496

> <ZINC ID of Ligand>
ZINC03993416

> <Number of Protein Chains in Target (bigger than 1 implies a multichain complex)>
1

> <BindingDB Target Chain Sequence>
MEMEKEFEQIDKSGSWAAIYQDIRHEASDFPCRVAKLPKNKNRNRYRDVSPFDHSRIKLHQEDNDYINASLIKMEEAQRSYILTQGPLPNTCGHFWEMVWEQKSRGVVMLNRVMEKGSLKCAQYWPQKEEKEMIFEDTNLKLTLISEDIKSYYTVRQLELENLTTQETREILHFHYTTWPDFGVPESPASFLNFLFKVRE
SGSLSPEHGPVVVHCSAGIGRSGTFCLADTCLLLMDKRKDPSSVDIKKVLLEMRKFRMGLIQTADQLRFSYLAVIEGAKFIMGDSSVQDQWKELSHEDLEPPPEHIPPPPRPPKRILEPHNGKCREFFPNHQWVKEETQEDKDCPIKEEKGSPLNAAPYGIESMSQDTEVRSRVVGGSLRGAQAASPAKGEPSLPEKDED
HALSYWKPFLVNMCVATVLTAGAYLCYRFLFNSNT

> <PDB ID(s) of Target Chain>
1BZJ,1G7G,1GFY,1JF7,1KAK,1KAV,1LQF,1NL9,1NNY,1NO6,1NZ7,1OEM,1OEO,1OES,1OET,1OEU,1OEV,1ONY,1ONZ,1PH0,1PXH,1PYN,1Q1M,1Q6J,1Q6M,1Q6N,1Q6P,1Q6S,1Q6T,1QXK,1SUG,1T48,1T49,1T4J,1WAX,1XBO,2AZR,2B07,2BGD,2BGE,
2CM2,2CM3,2CM7,2CM8,2CMA,2CMB,2CMC,2CNE,2CNF,2CNG,2CNH,2CNI,2F6T,2F6V,2F6W,2F6Y,2F6Z,2F70,2F71,2FJN,2H4G,2H4K,2HB1,2HNP,2HNQ,2QBP,2QBQ,2QBR,2QBS,2VEU,2VEV,2VEW,2VEX,2VEY,2ZMM,2ZN7,3A5J,3CWE,3D9C,3EAX,
3EB1,3EU0,3I7Z,3I80,3SME,4BJO,4I8N,4QBW,4Y14,5K9V,5K9W,5KA0,5KA1,5T19,6B90,6NTP,6W30,7KEY,7KLX,7LFO,7MN9,7MNA,8DU7,8G65,8G67,8G68,8G69,8G6A,8SKL

> <UniProt (SwissProt) Recommended Name of Target Chain>
Tyrosine-protein phosphatase non-receptor type 1

> <UniProt (SwissProt) Entry Name of Target Chain>
PTN1_HUMAN

> <UniProt (SwissProt) Primary ID of Target Chain>
P18031

> <UniProt (SwissProt) Secondary ID(s) of Target Chain>
Q5TGD8 Q9BQV9 Q9NQQ4

$$$$
Molecule
  SciTegic10242319433D

 58 62  0  0  0  0            999 V2000
    8.3311  -23.5982   -0.0533 C   0  0
    8.2524  -25.0517   -0.0480 C   0  0
    9.3857  -25.7859   -0.0296 C   0  0
   10.7829  -25.1474   -0.0099 C   0  0
   10.8138  -23.8289    0.0349 C   0  0
    9.5491  -23.0745   -0.0077 C   0  0
    7.0255  -22.6971   -0.2892 C   0  0
   12.1677  -25.9971   -0.0742 C   0  0  2  0  0  0
    6.9237  -21.0878    0.1065 C   0  0  2  0  0  0
    5.5734  -20.4416   -0.4276 N   0  0
    8.2404  -20.1313   -0.0034 C   0  0
    9.4635  -20.5453    0.0024 N   0  0
    8.2366  -18.6931   -0.0127 N   0  0
    9.6024  -18.3273   -0.0117 C   0  0
   10.3462  -19.4682   -0.0122 C   0  0
   11.6843  -19.4715   -0.0043 C   0  0
   12.3743  -18.1478   -0.0034 C   0  0
   11.6401  -17.0255   -0.0037 C   0  0
   10.1513  -17.1159   -0.0064 C   0  0
   12.1695  -27.7481   -0.0082 S   0  0
   13.8823  -27.9196    0.2325 N   0  0
   14.5576  -26.6753    0.0273 C   0  0
   13.6464  -25.4180    0.0292 C   0  0
   11.6795  -28.6852   -1.1029 O   0  0
   11.0857  -27.6758    1.0222 O   0  0
   15.7974  -26.5894   -0.0148 O   0  0
    4.1070  -21.3334    0.1573 S   0  0
    2.3531  -22.0848   -0.1759 C   0  0
    4.3043  -22.7256    0.6905 O   0  0
    3.2118  -20.1390    0.2818 O   0  0
    1.1964  -21.3813   -0.0971 C   0  0
   -0.1851  -22.1214   -0.0633 C   0  0
   -0.2511  -23.4663   -0.0156 C   0  0
    1.0026  -24.2088   -0.0293 C   0  0
    2.1957  -23.5868   -0.1091 C   0  0
   -1.5407  -24.2048    0.0070 C   0  0
   -2.5380  -24.7895    0.0243 N   0  0
    7.2812  -25.5463   -0.0588 H   0  0
    9.3060  -26.8730   -0.0287 H   0  0
   11.7660  -23.3029    0.1028 H   0  0
    9.6207  -21.9869   -0.0012 H   0  0
    6.2241  -23.1882    0.2629 H   0  0
    6.8179  -22.7521   -1.3578 H   0  0
   12.1842  -25.9865   -1.1641 H   0  0
    6.7532  -21.1243    1.1825 H   0  0
    5.5830  -20.4593   -1.4974 H   0  0
    7.3869  -18.0428   -0.0190 H   0  0
   12.2483  -20.4043    0.0013 H   0  0
   13.4630  -18.0940   -0.0026 H   0  0
   12.1293  -16.0515   -0.0020 H   0  0
    9.5331  -16.2181   -0.0041 H   0  0
   14.3677  -28.8352    0.4990 H   0  0
   13.7743  -24.8511    0.9514 H   0  0
   13.8703  -24.7788   -0.8248 H   0  0
    1.2276  -20.2924   -0.0570 H   0  0
   -1.1064  -21.5392   -0.0786 H   0  0
    0.9748  -25.2971    0.0265 H   0  0
    3.0964  -24.2004   -0.1264 H   0  0
 17 18  2  0
  9  7  1  0
 18 19  1  0
 19 14  2  0
  8 20  1  0
  4  5  2  0
  9 10  1  0
  2  3  2  0
  9 11  1  0
 20 21  1  0
 21 22  1  0
 22 23  1  0
  8 23  1  0
 11 12  2  0
 20 24  2  0
  5  6  1  0
 20 25  2  0
  6  1  2  0
 22 26  2  0
 12 15  1  0
 10 27  1  0
 14 13  1  0
 27 28  1  0
 13 11  1  0
 27 29  2  0
  1  2  1  0
 27 30  2  0
  1  7  1  0
 28 31  2  0
 14 15  1  0
 31 32  1  0
  3  4  1  0
 32 33  2  0
 15 16  2  0
 33 34  1  0
  4  8  1  0
 34 35  2  0
 35 28  1  0
 16 17  1  0
 33 36  1  0
 36 37  3  0
  2 38  1  0
  3 39  1  0
  5 40  1  0
  6 41  1  0
  7 42  1  0
  7 43  1  0
  8 44  1  0
  9 45  1  0
 10 46  1  0
 13 47  1  0
 16 48  1  0
 17 49  1  0
 18 50  1  0
 19 51  1  0
 21 52  1  0
 23 53  1  0
 23 54  1  0
 31 55  1  0
 32 56  1  0
 34 57  1  0
 35 58  1  0
M  END
> <Name>
Molecule

> <Clean Energy>
218.556

> <From>
www.bindingDB.org

> <BindingDB Reactant_set_id>
50350955

> <Ligand InChI>
InChI=1S/C25H21N5O5S2/c26-15-17-7-11-19(12-8-17)36(32,33)29-22(25-27-20-3-1-2-4-21(20)28-25)13-16-5-9-18(10-6-16)23-14-24(31)30-37(23,34)35/h1-12,22-23,29H,13-14H2,(H,27,28)(H,30,31)

> <Ligand InChI Key>
LHNRAAYRUDNQKX-UHFFFAOYSA-N

> <BindingDB MonomerID>
50189673

> <BindingDB Ligand Name>
CHEMBL383437::N-{1-(1H-benzoimidazol-2-yl)-2-[4-(1,1,3-trioxo-1lambda*6*-isothiazolidin-5-yl)-phenyl]-ethyl}-4-cyano-benzenesulfonamide

> <Target Name>
Tyrosine-protein phosphatase non-receptor type 1

> <Target Source Organism According to Curator or DataSource>
Homo sapiens

> <IC50 (nM)>
63

> <Curation/DataSource>
ChEMBL

> <Article DOI>
10.1021/jm0600904

> <BindingDB Entry DOI>
10.7270/Q2JQ10M8

> <PMID>
16789735

> <Authors>
Combs, AP; Zhu, W; Crawley, ML; Glass, B; Polam, P; Sparks, RB; Modi, D; Takvorian, A; McLaughlin, E; Yue, EW; Wasserman, Z; Bower, M; Wei, M; Rupar, M; Ala, PJ; Reid, BM; Ellis, D; Gonneville, L; Emm
, T; Taylor, N; Yeleswaram, S; Li, Y; Wynn, R; Burn, TC; Hollis, G; Liu, PC; Metcalf, B

> <Institution>
Incyte Corporation

> <Link to Ligand in BindingDB>
http://www.bindingdb.org/bind/chemsearch/marvin/MolStructure.jsp?monomerid=50189673

> <Link to Ligand-Target Pair in BindingDB>
http://www.bindingdb.org/jsp/dbsearch/PrimarySearch_ki.jsp?energyterm=kJ/mole&tag=pol&polymerid=2622&target=Tyrosine-protein+phosphatase+non-receptor+type+1&column=ki&startPg=0&Increment=50&submit=Sea
rch
http://www.bindingdb.org/jsp/dbsearch/PrimarySearch_ki.jsp?energyterm=kJ/mole&tag=r21&monomerid=50189673&enzyme=Tyrosine-protein+phosphatase+non-receptor+type+1&column=ki&startPg=0&Increment=50&submit
=Search

> <PubChem CID of Ligand>
21879153

> <PubChem SID of Ligand>
104073194

> <ChEMBL ID of Ligand>
CHEMBL383437

> <ZINC ID of Ligand>
ZINC36088414

> <Number of Protein Chains in Target (bigger than 1 implies a multichain complex)>
1

> <BindingDB Target Chain Sequence>
MEMEKEFEQIDKSGSWAAIYQDIRHEASDFPCRVAKLPKNKNRNRYRDVSPFDHSRIKLHQEDNDYINASLIKMEEAQRSYILTQGPLPNTCGHFWEMVWEQKSRGVVMLNRVMEKGSLKCAQYWPQKEEKEMIFEDTNLKLTLISEDIKSYYTVRQLELENLTTQETREILHFHYTTWPDFGVPESPASFLNFLFKVRE
SGSLSPEHGPVVVHCSAGIGRSGTFCLADTCLLLMDKRKDPSSVDIKKVLLEMRKFRMGLIQTADQLRFSYLAVIEGAKFIMGDSSVQDQWKELSHEDLEPPPEHIPPPPRPPKRILEPHNGKCREFFPNHQWVKEETQEDKDCPIKEEKGSPLNAAPYGIESMSQDTEVRSRVVGGSLRGAQAASPAKGEPSLPEKDED
HALSYWKPFLVNMCVATVLTAGAYLCYRFLFNSNT

> <PDB ID(s) of Target Chain>
1BZJ,1G7G,1GFY,1JF7,1KAK,1KAV,1LQF,1NL9,1NNY,1NO6,1NZ7,1OEM,1OEO,1OES,1OET,1OEU,1OEV,1ONY,1ONZ,1PH0,1PXH,1PYN,1Q1M,1Q6J,1Q6M,1Q6N,1Q6P,1Q6S,1Q6T,1QXK,1SUG,1T48,1T49,1T4J,1WAX,1XBO,2AZR,2B07,2BGD,2BGE,
2CM2,2CM3,2CM7,2CM8,2CMA,2CMB,2CMC,2CNE,2CNF,2CNG,2CNH,2CNI,2F6T,2F6V,2F6W,2F6Y,2F6Z,2F70,2F71,2FJN,2H4G,2H4K,2HB1,2HNP,2HNQ,2QBP,2QBQ,2QBR,2QBS,2VEU,2VEV,2VEW,2VEX,2VEY,2ZMM,2ZN7,3A5J,3CWE,3D9C,3EAX,
3EB1,3EU0,3I7Z,3I80,3SME,4BJO,4I8N,4QBW,4Y14,5K9V,5K9W,5KA0,5KA1,5T19,6B90,6NTP,6W30,7KEY,7KLX,7LFO,7MN9,7MNA,8DU7,8G65,8G67,8G68,8G69,8G6A,8SKL

> <UniProt (SwissProt) Recommended Name of Target Chain>
Tyrosine-protein phosphatase non-receptor type 1

> <UniProt (SwissProt) Entry Name of Target Chain>
PTN1_HUMAN

> <UniProt (SwissProt) Primary ID of Target Chain>
P18031

> <UniProt (SwissProt) Secondary ID(s) of Target Chain>
Q5TGD8 Q9BQV9 Q9NQQ4

$$$$
Molecule
  SciTegic10242319433D

 66 70  0  0  0  0            999 V2000
   -7.3726   -0.6888   -0.0462 C   0  0
   -7.2862   -2.1283   -0.1546 C   0  0
   -6.0621   -2.7291   -0.3084 C   0  0
   -4.8618   -1.8589   -0.3312 C   0  0
   -4.9576   -0.5789   -0.2181 C   0  0
   -6.2816    0.0706   -0.0807 C   0  0
   -3.2543   -2.7104   -0.4076 S   0  0
   -1.8889   -2.9383    0.7091 N   0  0
   -3.3605   -1.7313    0.8021 O   0  0
   -3.8194   -4.0678   -0.2760 O   0  0
   -0.5901   -2.1941    0.5009 C   0  0  3  0  0  0
    0.5054   -3.0382   -0.2721 C   0  0
    1.9509   -2.4256   -0.2190 C   0  0
   -0.8192   -0.7712   -0.0474 C   0  0
    2.9722   -3.0601   -0.7905 C   0  0
    4.3333   -2.4587   -0.7911 C   0  0
    4.5368   -1.2574   -0.2160 C   0  0
    3.4280   -0.5909    0.4346 C   0  0
    2.2199   -1.1348    0.4494 C   0  0
    5.8963   -0.5800   -0.2907 C   0  0  2  0  0  0
    7.0556   -1.4503    0.1433 C   0  0
    8.0802   -0.4414   -0.0256 C   0  0
    7.5833    0.8570   -0.0531 N   0  0
    5.9237    1.1085    0.4659 S   0  0
    9.2589   -0.7144   -0.2784 O   0  0
    4.8984    1.7324   -0.4575 O   0  0
    6.7660    2.3638    0.6035 O   0  0
   -0.0818   -0.2120   -0.9274 N   0  0
   -1.7915    0.0909    0.4203 N   0  0
   -1.3131    1.3826    0.1530 C   0  0  1  0  0  0
   -0.5661    1.1238   -1.1875 C   0  0
   -2.3861    2.5088    0.1336 C   0  0
   -1.8130    3.9202    0.0285 C   0  0
   -0.5104    4.1628    0.2166 C   0  0
    0.0053    5.5295    0.1593 C   0  0
   -0.8250    6.5452   -0.0654 C   0  0
   -2.2530    6.2889   -0.2634 C   0  0
   -2.7201    5.0443   -0.2212 C   0  0
   -8.3763   -2.9019   -0.1100 F   0  0
   -4.0290    4.8145   -0.4025 F   0  0
   -8.3493   -0.2180    0.0657 H   0  0
   -5.9750   -3.8108   -0.4104 H   0  0
   -4.0550    0.0321   -0.2235 H   0  0
   -6.3605    1.1554   -0.0090 H   0  0
   -2.2423   -2.6699    1.6827 H   0  0
   -0.1827   -2.0499    1.5016 H   0  0
    0.5410   -4.0350    0.1676 H   0  0
    0.2044   -3.1120   -1.3171 H   0  0
    2.8099   -4.0292   -1.2624 H   0  0
    5.1643   -2.9891   -1.2561 H   0  0
    3.5896    0.3721    0.9190 H   0  0
    1.4086   -0.6204    0.9645 H   0  0
    6.0620   -0.4091   -1.3544 H   0  0
    6.9642   -1.7876    1.1758 H   0  0
    7.2019   -2.3112   -0.5090 H   0  0
    8.1909    1.6751   -0.3792 H   0  0
   -2.7169   -0.1716    0.8889 H   0  0
   -0.5716    1.6334    0.9115 H   0  0
    0.2494    1.8302   -1.3428 H   0  0
   -1.2411    1.1535   -2.0428 H   0  0
   -3.0409    2.3418   -0.7216 H   0  0
   -2.9660    2.4436    1.0542 H   0  0
    0.1711    3.3352    0.4140 H   0  0
    1.0697    5.7168    0.3006 H   0  0
   -0.4429    7.5653   -0.1019 H   0  0
   -2.9345    7.1197   -0.4458 H   0  0
 20 21  1  0
  4  5  2  0
  7 10  2  0
  2  3  2  0
 11  8  1  0
  5  6  1  0
 21 22  1  0
 22 23  1  0
 23 24  1  0
 24 20  1  0
 20 17  1  0
 11 12  1  0
 22 25  2  0
  6  1  2  0
 24 26  2  0
 12 13  1  0
 24 27  2  0
 14 28  2  0
  1  2  1  0
 11 14  1  0
 28 31  1  0
 30 29  1  0
 29 14  1  0
  4  7  1  0
 13 15  2  0
 30 31  1  0
  3  4  1  0
 30 32  1  0
 15 16  1  0
 32 33  1  0
  7  8  1  0
 33 34  2  0
 16 17  2  0
 34 35  1  0
 35 36  2  0
 17 18  1  0
 36 37  1  0
  7  9  2  0
 37 38  2  0
 38 33  1  0
 18 19  2  0
  2 39  1  0
 19 13  1  0
 38 40  1  0
  1 41  1  0
  3 42  1  0
  5 43  1  0
  6 44  1  0
  8 45  1  0
 11 46  1  0
 12 47  1  0
 12 48  1  0
 15 49  1  0
 16 50  1  0
 18 51  1  0
 19 52  1  0
 20 53  1  0
 21 54  1  0
 21 55  1  0
 23 56  1  0
 29 57  1  0
 30 58  1  0
 31 59  1  0
 31 60  1  0
 32 61  1  0
 32 62  1  0
 34 63  1  0
 35 64  1  0
 36 65  1  0
 37 66  1  0
M  END
> <Name>
Molecule

> <Clean Energy>
240.899

> <From>
www.bindingDB.org

> <BindingDB Reactant_set_id>
50406933

> <Ligand InChI>
InChI=1S/C27H26F2N4O5S2/c28-20-5-3-6-22(14-20)39(35,36)32-24(27-30-16-21(31-27)13-19-4-1-2-7-23(19)29)12-17-8-10-18(11-9-17)25-15-26(34)33-40(25,37)38/h1-11,14,21,24-25,32H,12-13,15-16H2,(H,30,31)(H,3
3,34)/t21-,24?,25?/m1/s1

> <Ligand InChI Key>
HRQDONKCLCDEJL-BURHJUHKSA-N

> <BindingDB MonomerID>
50228038

> <BindingDB Ligand Name>
3-fluoro-N-{1-[(R)-5-(2-fluoro-benzyl)-4,5-dihydro-1H-imidazol-2-yl]-2-[4-(1,1,3-trioxo-1lambda6-isothiazolidin-5-yl)-phenyl]-ethyl}-benzenesulfonamide::CHEMBL428589

> <Target Name>
Tyrosine-protein phosphatase non-receptor type 1

> <Target Source Organism According to Curator or DataSource>
Homo sapiens

> <IC50 (nM)>
64

> <Curation/DataSource>
ChEMBL

> <Article DOI>
10.1016/j.bmcl.2007.11.012

> <BindingDB Entry DOI>
10.7270/Q2BV7GCQ

> <PMID>
18037290

> <Authors>
Douty, B; Wayland, B; Ala, PJ; Bower, MJ; Pruitt, J; Bostrom, L; Wei, M; Klabe, R; Gonneville, L; Wynn, R; Burn, TC; Liu, PC; Combs, AP; Yue, EW

> <Institution>
Incyte Corporation

> <Link to Ligand in BindingDB>
http://www.bindingdb.org/bind/chemsearch/marvin/MolStructure.jsp?monomerid=50228038

> <Link to Ligand-Target Pair in BindingDB>
http://www.bindingdb.org/jsp/dbsearch/PrimarySearch_ki.jsp?energyterm=kJ/mole&tag=pol&polymerid=2622&target=Tyrosine-protein+phosphatase+non-receptor+type+1&column=ki&startPg=0&Increment=50&submit=Sea
rch
http://www.bindingdb.org/jsp/dbsearch/PrimarySearch_ki.jsp?energyterm=kJ/mole&tag=r21&monomerid=50228038&enzyme=Tyrosine-protein+phosphatase+non-receptor+type+1&column=ki&startPg=0&Increment=50&submit
=Search

> <PubChem CID of Ligand>
44446125

> <PubChem SID of Ligand>
104097725

> <ChEMBL ID of Ligand>
CHEMBL428589

> <ZINC ID of Ligand>
ZINC28977607

> <Number of Protein Chains in Target (bigger than 1 implies a multichain complex)>
1

> <BindingDB Target Chain Sequence>
MEMEKEFEQIDKSGSWAAIYQDIRHEASDFPCRVAKLPKNKNRNRYRDVSPFDHSRIKLHQEDNDYINASLIKMEEAQRSYILTQGPLPNTCGHFWEMVWEQKSRGVVMLNRVMEKGSLKCAQYWPQKEEKEMIFEDTNLKLTLISEDIKSYYTVRQLELENLTTQETREILHFHYTTWPDFGVPESPASFLNFLFKVRE
SGSLSPEHGPVVVHCSAGIGRSGTFCLADTCLLLMDKRKDPSSVDIKKVLLEMRKFRMGLIQTADQLRFSYLAVIEGAKFIMGDSSVQDQWKELSHEDLEPPPEHIPPPPRPPKRILEPHNGKCREFFPNHQWVKEETQEDKDCPIKEEKGSPLNAAPYGIESMSQDTEVRSRVVGGSLRGAQAASPAKGEPSLPEKDED
HALSYWKPFLVNMCVATVLTAGAYLCYRFLFNSNT

> <PDB ID(s) of Target Chain>
1BZJ,1G7G,1GFY,1JF7,1KAK,1KAV,1LQF,1NL9,1NNY,1NO6,1NZ7,1OEM,1OEO,1OES,1OET,1OEU,1OEV,1ONY,1ONZ,1PH0,1PXH,1PYN,1Q1M,1Q6J,1Q6M,1Q6N,1Q6P,1Q6S,1Q6T,1QXK,1SUG,1T48,1T49,1T4J,1WAX,1XBO,2AZR,2B07,2BGD,2BGE,
2CM2,2CM3,2CM7,2CM8,2CMA,2CMB,2CMC,2CNE,2CNF,2CNG,2CNH,2CNI,2F6T,2F6V,2F6W,2F6Y,2F6Z,2F70,2F71,2FJN,2H4G,2H4K,2HB1,2HNP,2HNQ,2QBP,2QBQ,2QBR,2QBS,2VEU,2VEV,2VEW,2VEX,2VEY,2ZMM,2ZN7,3A5J,3CWE,3D9C,3EAX,
3EB1,3EU0,3I7Z,3I80,3SME,4BJO,4I8N,4QBW,4Y14,5K9V,5K9W,5KA0,5KA1,5T19,6B90,6NTP,6W30,7KEY,7KLX,7LFO,7MN9,7MNA,8DU7,8G65,8G67,8G68,8G69,8G6A,8SKL

> <UniProt (SwissProt) Recommended Name of Target Chain>
Tyrosine-protein phosphatase non-receptor type 1

> <UniProt (SwissProt) Entry Name of Target Chain>
PTN1_HUMAN

> <UniProt (SwissProt) Primary ID of Target Chain>
P18031

> <UniProt (SwissProt) Secondary ID(s) of Target Chain>
Q5TGD8 Q9BQV9 Q9NQQ4

$$$$
Molecule
  SciTegic10242319433D

 64 68  0  0  0  0            999 V2000
    2.1694   -3.0680    0.3136 O   0  0
    2.5432   -1.7389   -0.3139 S   0  0
    2.7536   -1.9395   -1.8018 O   0  0
    1.1371   -0.6612   -0.0975 C   0  0
    1.2821    0.8000   -0.0627 C   0  0
    0.1992    1.5697    0.0807 C   0  0
   -1.1293    0.9603    0.2052 C   0  0
   -1.2587   -0.3635    0.1744 C   0  0
   -0.0745   -1.2074    0.0131 C   0  0
    4.0389   -1.0896    0.3852 N   0  0
    5.2859   -1.8604   -0.0293 C   0  0  1  0  0  0
    6.5589   -1.2048    0.6857 C   0  0
    7.9640   -1.8132    0.3723 C   0  0
    9.1802   -1.2057    0.9769 C   0  0
   10.3920   -1.7297    0.7460 C   0  0
   10.5187   -2.9190   -0.1123 C   0  0
    9.4292   -3.4506   -0.6581 C   0  0
    8.1116   -2.8804   -0.4113 C   0  0
   13.3576   -2.7284   -0.0157 S   0  0
   14.3122   -4.0700   -0.3571 N   0  0
   13.5148   -5.2263   -0.1090 C   0  0
   12.0596   -4.9195    0.3134 C   0  0
   11.8506   -3.5758   -0.4154 C   0  0  1  0  0  0
   13.9479   -6.3787   -0.2251 O   0  0
   13.5988   -1.5096   -0.8853 O   0  0
   13.4533   -2.3977    1.4615 O   0  0
    5.1114   -3.3422    0.3005 C   0  0
    4.2627   -4.1058   -0.2625 N   0  0
    4.4381   -5.3874    0.2670 C   0  0
    5.4238   -5.3745    1.1633 C   0  0
    5.8919   -4.0622    1.2056 N   0  0
    3.5527   -6.5827   -0.1356 C   0  0
    4.1545   -7.9985   -0.0473 C   0  0
    3.2304   -9.1426    0.0038 C   0  0
    3.7086  -10.3896    0.0484 C   0  0
    5.1504  -10.6220    0.0456 C   0  0
    5.9897   -9.5900   -0.0040 C   0  0
    5.4665   -8.2213   -0.0589 C   0  0
    1.9074   -8.9393    0.0076 F   0  0
    0.3211    2.9044    0.1113 F   0  0
    2.2686    1.2545   -0.1534 H   0  0
   -2.0100    1.5916    0.3230 H   0  0
   -2.2448   -0.8183    0.2690 H   0  0
   -0.1834   -2.2916   -0.0169 H   0  0
    3.9577   -1.1246    1.4515 H   0  0
    5.4085   -1.7608   -1.1078 H   0  0
    6.5882   -0.1539    0.3977 H   0  0
    6.4035   -1.2829    1.7617 H   0  0
    9.0848   -0.3261    1.6136 H   0  0
   11.2785   -1.2779    1.1911 H   0  0
    9.5232   -4.3265   -1.3001 H   0  0
    7.2346   -3.3331   -0.8739 H   0  0
   15.3269   -4.0585   -0.6966 H   0  0
   11.3661   -5.6832   -0.0386 H   0  0
   11.9656   -4.8129    1.3941 H   0  0
   11.8716   -3.7830   -1.4853 H   0  0
    5.7903   -6.2196    1.7460 H   0  0
    6.6892   -3.6833    1.8104 H   0  0
    3.2485   -6.4251   -1.1703 H   0  0
    2.6738   -6.5648    0.5088 H   0  0
    3.0214  -11.2348    0.0870 H   0  0
    5.5389  -11.6397    0.0841 H   0  0
    7.0659   -9.7624   -0.0037 H   0  0
    6.1575   -7.3798   -0.1096 H   0  0
  2  1  2  0
  3  2  2  0
  4  5  1  0
  5  6  2  0
  6  7  1  0
  7  8  2  0
  8  9  1  0
  4  9  2  0
  2 10  1  0
  4  2  1  0
 11 12  1  0
 13 14  1  0
 14 15  2  0
 15 16  1  0
 16 17  2  0
 17 18  1  0
 13 18  2  0
 19 20  1  0
 20 21  1  0
 21 22  1  0
 22 23  1  0
 19 23  1  0
 21 24  2  0
 19 25  2  0
 19 26  2  0
 23 16  1  0
 12 13  1  0
 27 28  2  0
 28 29  1  0
 29 30  2  0
 30 31  1  0
 27 31  1  0
 33 34  1  0
 34 35  2  0
 35 36  1  0
 36 37  2  0
 37 38  1  0
 33 38  2  0
 34 39  1  0
 32 33  1  0
 29 32  1  0
 11 27  1  0
 11 10  1  0
  6 40  1  0
  5 41  1  0
  7 42  1  0
  8 43  1  0
  9 44  1  0
 10 45  1  0
 11 46  1  0
 12 47  1  0
 12 48  1  0
 14 49  1  0
 15 50  1  0
 17 51  1  0
 18 52  1  0
 20 53  1  0
 22 54  1  0
 22 55  1  0
 23 56  1  0
 30 57  1  0
 31 58  1  0
 32 59  1  0
 32 60  1  0
 35 61  1  0
 36 62  1  0
 37 63  1  0
 38 64  1  0
M  END
> <Name>
Molecule

> <Clean Energy>
77.2117

> <From>
www.bindingDB.org

> <BindingDB Reactant_set_id>
51217037

> <Ligand InChI>
InChI=1S/C27H24F2N4O5S2/c28-20-5-3-6-22(14-20)39(35,36)32-24(27-30-16-21(31-27)13-19-4-1-2-7-23(19)29)12-17-8-10-18(11-9-17)25-15-26(34)33-40(25,37)38/h1-11,14,16,24-25,32H,12-13,15H2,(H,30,31)(H,33,3
4)/t24-,25-/m0/s1

> <Ligand InChI Key>
NMVYGNISHMMTBE-DQEYMECFSA-N

> <BindingDB MonomerID>
50500146

> <BindingDB Ligand Name>
CHEMBL3747361

> <Target Name>
Tyrosine-protein phosphatase non-receptor type 1

> <Target Source Organism According to Curator or DataSource>
Homo sapiens

> <IC50 (nM)>
64

> <Curation/DataSource>
ChEMBL

> <Article DOI>
10.1021/acs.jmedchem.5b00586

> <BindingDB Entry DOI>
10.7270/Q24T6NC6

> <PMID>
26230724

> <Authors>
Kozakov, D; Hall, DR; Napoleon, RL; Yueh, C; Whitty, A; Vajda, S

> <Institution>
Stony Brook University

> <Link to Ligand in BindingDB>
http://www.bindingdb.org/bind/chemsearch/marvin/MolStructure.jsp?monomerid=50500146

> <Link to Ligand-Target Pair in BindingDB>
http://www.bindingdb.org/jsp/dbsearch/PrimarySearch_ki.jsp?energyterm=kJ/mole&tag=pol&polymerid=2622&target=Tyrosine-protein+phosphatase+non-receptor+type+1&column=ki&startPg=0&Increment=50&submit=Sea
rch
http://www.bindingdb.org/jsp/dbsearch/PrimarySearch_ki.jsp?energyterm=kJ/mole&tag=r21&monomerid=50500146&enzyme=Tyrosine-protein+phosphatase+non-receptor+type+1&column=ki&startPg=0&Increment=50&submit
=Search

> <PubChem CID of Ligand>
127039596

> <PubChem SID of Ligand>
433912047

> <Number of Protein Chains in Target (bigger than 1 implies a multichain complex)>
1

> <BindingDB Target Chain Sequence>
MEMEKEFEQIDKSGSWAAIYQDIRHEASDFPCRVAKLPKNKNRNRYRDVSPFDHSRIKLHQEDNDYINASLIKMEEAQRSYILTQGPLPNTCGHFWEMVWEQKSRGVVMLNRVMEKGSLKCAQYWPQKEEKEMIFEDTNLKLTLISEDIKSYYTVRQLELENLTTQETREILHFHYTTWPDFGVPESPASFLNFLFKVRE
SGSLSPEHGPVVVHCSAGIGRSGTFCLADTCLLLMDKRKDPSSVDIKKVLLEMRKFRMGLIQTADQLRFSYLAVIEGAKFIMGDSSVQDQWKELSHEDLEPPPEHIPPPPRPPKRILEPHNGKCREFFPNHQWVKEETQEDKDCPIKEEKGSPLNAAPYGIESMSQDTEVRSRVVGGSLRGAQAASPAKGEPSLPEKDED
HALSYWKPFLVNMCVATVLTAGAYLCYRFLFNSNT

> <PDB ID(s) of Target Chain>
1BZJ,1G7G,1GFY,1JF7,1KAK,1KAV,1LQF,1NL9,1NNY,1NO6,1NZ7,1OEM,1OEO,1OES,1OET,1OEU,1OEV,1ONY,1ONZ,1PH0,1PXH,1PYN,1Q1M,1Q6J,1Q6M,1Q6N,1Q6P,1Q6S,1Q6T,1QXK,1SUG,1T48,1T49,1T4J,1WAX,1XBO,2AZR,2B07,2BGD,2BGE,
2CM2,2CM3,2CM7,2CM8,2CMA,2CMB,2CMC,2CNE,2CNF,2CNG,2CNH,2CNI,2F6T,2F6V,2F6W,2F6Y,2F6Z,2F70,2F71,2FJN,2H4G,2H4K,2HB1,2HNP,2HNQ,2QBP,2QBQ,2QBR,2QBS,2VEU,2VEV,2VEW,2VEX,2VEY,2ZMM,2ZN7,3A5J,3CWE,3D9C,3EAX,
3EB1,3EU0,3I7Z,3I80,3SME,4BJO,4I8N,4QBW,4Y14,5K9V,5K9W,5KA0,5KA1,5T19,6B90,6NTP,6W30,7KEY,7KLX,7LFO,7MN9,7MNA,8DU7,8G65,8G67,8G68,8G69,8G6A,8SKL

> <UniProt (SwissProt) Recommended Name of Target Chain>
Tyrosine-protein phosphatase non-receptor type 1

> <UniProt (SwissProt) Entry Name of Target Chain>
PTN1_HUMAN

> <UniProt (SwissProt) Primary ID of Target Chain>
P18031

> <UniProt (SwissProt) Secondary ID(s) of Target Chain>
Q5TGD8 Q9BQV9 Q9NQQ4

$$$$
Molecule
  SciTegic10242319433D

 82 84  0  0  0  0            999 V2000
   23.1939  -24.5853   -1.2399 O   0  0
   23.5387  -25.2348    0.0875 S   0  0
   23.4393  -24.2079    1.2005 O   0  0
   26.3812  -23.8124   -0.0449 C   0  0
   26.3564  -25.1480   -0.0107 C   0  0
   27.6346  -25.8825    0.0008 C   0  0
   28.8167  -25.2485   -0.0142 C   0  0
   28.8437  -23.7632   -0.0415 C   0  0
   27.6814  -23.1052   -0.0586 C   0  0
   25.1337  -25.9068    0.0162 N   0  0
   22.3467  -26.5547    0.4263 C   0  0
   25.1901  -23.0829   -0.0649 O   0  0
   25.4229  -21.6729   -0.0949 C   0  0
   24.0664  -20.9431   -0.0924 C   0  0
   30.0089  -25.9951   -0.0080 O   0  0
   29.7157  -27.4112    0.0100 C   0  0
   31.0188  -28.2250   -0.0061 C   0  0
   30.1423  -22.9092   -0.0504 C   0  0
   31.4370  -23.5922   -0.0224 N   0  0
   32.6364  -22.7707   -0.0039 C   0  0
   33.9400  -23.3667    0.0023 N   0  0
   32.5160  -21.5416   -0.0073 O   0  0
   35.2242  -22.6565    0.0044 C   0  0
   36.3206  -23.3902    0.0011 C   0  0
   37.7045  -22.9555    0.0034 C   0  0
   37.8645  -21.5802    0.0015 C   0  0
   36.6120  -20.7338    0.0063 C   0  0
   35.3757  -21.2378    0.0054 C   0  0
   39.0747  -20.7210    0.0045 O   0  0
   40.4089  -21.2105    0.0029 C   0  0
   38.8499  -24.1388   -0.0028 C   0  0
   38.7250  -25.5314   -0.0028 N   0  0
   40.0327  -23.8205   -0.0045 O   0  0
   37.6277  -26.5246   -0.0021 C   0  0
   41.4084  -20.0404    0.0009 C   0  0
   36.3549  -26.1979   -0.0016 C   0  0
   35.2881  -27.1202   -0.0005 C   0  0
   35.5189  -28.4149    0.0004 C   0  0
   36.9688  -28.8846    0.0000 C   0  0
   37.9489  -27.9636   -0.0010 C   0  0
   37.3109  -30.2544    0.0008 O   0  0
   34.3470  -29.2323    0.0016 O   0  0
   34.5336  -30.6368    0.0025 C   0  0
   38.7297  -30.4561    0.0002 C   0  0
   27.6186  -26.9722    0.0221 H   0  0
   27.6907  -22.0156   -0.0833 H   0  0
   25.2167  -26.9732   -0.0101 H   0  0
   22.5874  -27.0267    1.3788 H   0  0
   22.3919  -27.2987   -0.3690 H   0  0
   21.3421  -26.1343    0.4734 H   0  0
   25.9983  -21.3785    0.7828 H   0  0
   25.9766  -21.4127   -0.9970 H   0  0
   24.2326  -19.8662   -0.1151 H   0  0
   23.5135  -21.2059    0.8095 H   0  0
   23.4918  -21.2402   -0.9697 H   0  0
   29.1535  -27.6506    0.9127 H   0  0
   29.1214  -27.6666   -0.8673 H   0  0
   30.7834  -29.2892    0.0077 H   0  0
   31.6154  -27.9740    0.8709 H   0  0
   31.5833  -27.9900   -0.9085 H   0  0
   30.1200  -22.3023   -0.9556 H   0  0
   30.1041  -22.2597    0.8241 H   0  0
   31.4985  -24.6604   -0.0158 H   0  0
   33.9808  -24.4359    0.0058 H   0  0
   36.1656  -24.4691   -0.0042 H   0  0
   36.7247  -19.6496    0.0108 H   0  0
   34.5047  -20.5825    0.0054 H   0  0
   40.5695  -21.8186    0.8931 H   0  0
   40.5671  -21.8195   -0.8872 H   0  0
   39.6827  -26.0086   -0.0035 H   0  0
   42.4260  -20.4311   -0.0003 H   0  0
   41.2554  -19.4297    0.8907 H   0  0
   41.2529  -19.4305   -0.8890 H   0  0
   36.1055  -25.1369   -0.0022 H   0  0
   34.2608  -26.7559   -0.0004 H   0  0
   38.9908  -28.2840   -0.0011 H   0  0
   33.5630  -31.1328    0.0033 H   0  0
   35.0911  -30.9292    0.8923 H   0  0
   35.0903  -30.9305   -0.8874 H   0  0
   38.9453  -31.5245    0.0008 H   0  0
   39.1627  -29.9981    0.8895 H   0  0
   39.1617  -29.9993   -0.8902 H   0  0
  2  1  2  0
  3  2  2  0
  4  5  2  0
  5  6  1  0
  6  7  2  0
  7  8  1  0
  8  9  2  0
  9  4  1  0
  5 10  1  0
 10  2  1  0
  2 11  1  0
  4 12  1  0
 12 13  1  0
 13 14  1  0
  7 15  1  0
 15 16  1  0
 16 17  1  0
  8 18  1  0
 18 19  1  0
 19 20  1  0
 20 21  1  0
 20 22  2  0
 21 23  1  0
 23 24  2  0
 24 25  1  0
 25 26  2  0
 26 27  1  0
 27 28  2  0
 28 23  1  0
 26 29  1  0
 29 30  1  0
 25 31  1  0
 31 32  1  0
 31 33  2  0
 32 34  1  0
 30 35  1  0
 34 36  2  0
 36 37  1  0
 37 38  2  0
 38 39  1  0
 39 40  2  0
 40 34  1  0
 39 41  1  0
 38 42  1  0
 42 43  1  0
 41 44  1  0
  6 45  1  0
  9 46  1  0
 10 47  1  0
 11 48  1  0
 11 49  1  0
 11 50  1  0
 13 51  1  0
 13 52  1  0
 14 53  1  0
 14 54  1  0
 14 55  1  0
 16 56  1  0
 16 57  1  0
 17 58  1  0
 17 59  1  0
 17 60  1  0
 18 61  1  0
 18 62  1  0
 19 63  1  0
 21 64  1  0
 24 65  1  0
 27 66  1  0
 28 67  1  0
 30 68  1  0
 30 69  1  0
 32 70  1  0
 35 71  1  0
 35 72  1  0
 35 73  1  0
 36 74  1  0
 37 75  1  0
 40 76  1  0
 43 77  1  0
 43 78  1  0
 43 79  1  0
 44 80  1  0
 44 81  1  0
 44 82  1  0
M  END
> <Name>
Molecule

> <Clean Energy>
51.1936

> <From>
www.bindingDB.org

> <BindingDB Reactant_set_id>
51024547

> <Ligand InChI>
InChI=1S/C11H17NO2S/c1-15(13,14)11-4-2-3-9(7-11)10-5-6-12-8-10/h2-4,10-12H,5-8H2,1H3

> <Ligand InChI Key>
FEEJEBGFGNLNQH-UHFFFAOYSA-N

> <BindingDB MonomerID>
50290925

> <BindingDB Ligand Name>
CHEMBL4175748

> <Target Name>
Tyrosine-protein phosphatase non-receptor type 1

> <Target Source Organism According to Curator or DataSource>
Homo sapiens

> <IC50 (nM)>
66

> <Curation/DataSource>
ChEMBL

> <Article DOI>
10.1016/j.ejmech.2017.12.064

> <BindingDB Entry DOI>
10.7270/Q23B62P2

> <PMID>
29289892

> <Authors>
Du, Y; Zhang, Y; Ling, H; Li, Q; Shen, J

> <Institution>
Qilu University of Technology (Shandong Academy of Sciences)

> <Link to Ligand in BindingDB>
http://www.bindingdb.org/bind/chemsearch/marvin/MolStructure.jsp?monomerid=50290925

> <Link to Ligand-Target Pair in BindingDB>
http://www.bindingdb.org/jsp/dbsearch/PrimarySearch_ki.jsp?energyterm=kJ/mole&tag=pol&polymerid=2622&target=Tyrosine-protein+phosphatase+non-receptor+type+1&column=ki&startPg=0&Increment=50&submit=Sea
rch
http://www.bindingdb.org/jsp/dbsearch/PrimarySearch_ki.jsp?energyterm=kJ/mole&tag=r21&monomerid=50290925&enzyme=Tyrosine-protein+phosphatase+non-receptor+type+1&column=ki&startPg=0&Increment=50&submit
=Search

> <PubChem CID of Ligand>
44460787

> <PubChem SID of Ligand>
104132477

> <ZINC ID of Ligand>
ZINC26499344

> <Number of Protein Chains in Target (bigger than 1 implies a multichain complex)>
1

> <BindingDB Target Chain Sequence>
MEMEKEFEQIDKSGSWAAIYQDIRHEASDFPCRVAKLPKNKNRNRYRDVSPFDHSRIKLHQEDNDYINASLIKMEEAQRSYILTQGPLPNTCGHFWEMVWEQKSRGVVMLNRVMEKGSLKCAQYWPQKEEKEMIFEDTNLKLTLISEDIKSYYTVRQLELENLTTQETREILHFHYTTWPDFGVPESPASFLNFLFKVRE
SGSLSPEHGPVVVHCSAGIGRSGTFCLADTCLLLMDKRKDPSSVDIKKVLLEMRKFRMGLIQTADQLRFSYLAVIEGAKFIMGDSSVQDQWKELSHEDLEPPPEHIPPPPRPPKRILEPHNGKCREFFPNHQWVKEETQEDKDCPIKEEKGSPLNAAPYGIESMSQDTEVRSRVVGGSLRGAQAASPAKGEPSLPEKDED
HALSYWKPFLVNMCVATVLTAGAYLCYRFLFNSNT

> <PDB ID(s) of Target Chain>
1BZJ,1G7G,1GFY,1JF7,1KAK,1KAV,1LQF,1NL9,1NNY,1NO6,1NZ7,1OEM,1OEO,1OES,1OET,1OEU,1OEV,1ONY,1ONZ,1PH0,1PXH,1PYN,1Q1M,1Q6J,1Q6M,1Q6N,1Q6P,1Q6S,1Q6T,1QXK,1SUG,1T48,1T49,1T4J,1WAX,1XBO,2AZR,2B07,2BGD,2BGE,
2CM2,2CM3,2CM7,2CM8,2CMA,2CMB,2CMC,2CNE,2CNF,2CNG,2CNH,2CNI,2F6T,2F6V,2F6W,2F6Y,2F6Z,2F70,2F71,2FJN,2H4G,2H4K,2HB1,2HNP,2HNQ,2QBP,2QBQ,2QBR,2QBS,2VEU,2VEV,2VEW,2VEX,2VEY,2ZMM,2ZN7,3A5J,3CWE,3D9C,3EAX,
3EB1,3EU0,3I7Z,3I80,3SME,4BJO,4I8N,4QBW,4Y14,5K9V,5K9W,5KA0,5KA1,5T19,6B90,6NTP,6W30,7KEY,7KLX,7LFO,7MN9,7MNA,8DU7,8G65,8G67,8G68,8G69,8G6A,8SKL

> <UniProt (SwissProt) Recommended Name of Target Chain>
Tyrosine-protein phosphatase non-receptor type 1

> <UniProt (SwissProt) Entry Name of Target Chain>
PTN1_HUMAN

> <UniProt (SwissProt) Primary ID of Target Chain>
P18031

> <UniProt (SwissProt) Secondary ID(s) of Target Chain>
Q5TGD8 Q9BQV9 Q9NQQ4

$$$$
Molecule
  SciTegic10242319433D

 60 64  0  0  0  0            999 V2000
    9.5033  -16.7166   -0.2674 C   0  0
    9.5695  -18.1516   -0.6155 C   0  0
   10.6766  -18.8601   -0.3633 C   0  0
   11.8425  -18.2045    0.2464 C   0  0
   11.7753  -16.9213    0.5675 C   0  0
   10.5667  -16.1693    0.3106 C   0  0
    8.2148  -15.8956   -0.6386 C   0  0
   13.1281  -18.9414    0.5004 C   0  0  1  0  0  0
    7.9671  -14.3910   -0.0931 C   0  0  2  0  0  0
    6.5925  -13.8896   -0.5072 N   0  0
    9.1255  -13.3282   -0.2152 C   0  0
   10.3553  -13.6407   -0.3341 N   0  0
    8.9763  -11.8881   -0.1000 N   0  0
   10.2928  -11.4261   -0.1458 C   0  0
   11.1276  -12.5090   -0.2973 C   0  0
   12.4426  -12.4269   -0.3487 C   0  0
   13.0433  -11.0831   -0.2555 C   0  0
   12.2465  -10.0126   -0.1151 C   0  0
   10.7673  -10.1798   -0.0501 C   0  0
   13.2330  -20.6397    0.0562 S   0  0
   14.8893  -20.7186    0.3467 N   0  0
   15.4334  -19.4055    0.1806 C   0  0
   14.3937  -18.2993   -0.1094 C   0  0
   12.9678  -20.8611   -1.4201 O   0  0
   12.3656  -21.5181    0.9374 O   0  0
   16.6436  -19.1691    0.2713 O   0  0
    5.3785  -14.3353    0.7115 S   0  0
    3.8345  -15.0580    0.1064 C   0  0
    6.0176  -15.3579    1.6284 O   0  0
    5.0395  -13.0857    1.5001 O   0  0
    2.6887  -14.3793    0.2288 C   0  0
    1.4053  -14.9979   -0.1678 C   0  0
    1.3861  -16.2478   -0.6265 C   0  0
    2.6405  -16.9993   -0.7521 C   0  0
    3.8020  -16.4371   -0.4074 C   0  0
    0.1129  -14.2310   -0.0218 C   0  0
   -0.1766  -13.6385   -1.2326 F   0  0
    0.2477  -13.2391    0.9269 F   0  0
   -0.9264  -15.0936    0.2759 F   0  0
    8.7109  -18.6360   -1.0807 H   0  0
   10.7136  -19.9213   -0.6094 H   0  0
   12.6333  -16.4304    1.0269 H   0  0
   10.5273  -15.1193    0.6006 H   0  0
    8.1970  -15.8319   -1.7266 H   0  0
    7.3667  -16.4878   -0.2949 H   0  0
   13.2751  -18.9111    1.5800 H   0  0
    7.8681  -14.5294    0.9836 H   0  0
    6.3260  -14.3268   -1.4467 H   0  0
    8.0753  -11.3191   -0.0035 H   0  0
   13.0617  -13.3176   -0.4559 H   0  0
   14.1255  -10.9606   -0.3002 H   0  0
   12.6833   -9.0162   -0.0484 H   0  0
   10.1021   -9.3247    0.0699 H   0  0
   15.4396  -21.5977    0.6099 H   0  0
   14.6508  -17.3643    0.3882 H   0  0
   14.2806  -18.1231   -1.1791 H   0  0
    2.7008  -13.3633    0.6234 H   0  0
    0.4408  -16.7118   -0.9082 H   0  0
    2.6241  -18.0221   -1.1287 H   0  0
    4.7292  -17.0014   -0.5071 H   0  0
 18 19  1  0
 19 14  2  0
  8 20  1  0
  4  5  2  0
  9 10  1  0
  2  3  2  0
  9 11  1  0
 20 21  1  0
 21 22  1  0
 22 23  1  0
  8 23  1  0
 11 12  2  0
 20 24  2  0
  5  6  1  0
 20 25  2  0
  6  1  2  0
 22 26  2  0
 12 15  1  0
 10 27  1  0
 14 13  1  0
 27 28  1  0
 13 11  1  0
 27 29  2  0
  1  2  1  0
 27 30  2  0
  1  7  1  0
 28 31  2  0
 14 15  1  0
 31 32  1  0
  3  4  1  0
 32 33  2  0
 15 16  2  0
 33 34  1  0
  4  8  1  0
 34 35  2  0
 35 28  1  0
 16 17  1  0
 32 36  1  0
 36 37  1  0
 17 18  2  0
 36 38  1  0
  9  7  1  0
 36 39  1  0
  2 40  1  0
  3 41  1  0
  5 42  1  0
  6 43  1  0
  7 44  1  0
  7 45  1  0
  8 46  1  0
  9 47  1  0
 10 48  1  0
 13 49  1  0
 16 50  1  0
 17 51  1  0
 18 52  1  0
 19 53  1  0
 21 54  1  0
 23 55  1  0
 23 56  1  0
 31 57  1  0
 33 58  1  0
 34 59  1  0
 35 60  1  0
M  END
> <Name>
Molecule

> <Clean Energy>
90.2662

> <From>
www.bindingDB.org

> <BindingDB Reactant_set_id>
50406922

> <Ligand InChI>
InChI=1S/C25H21F3N4O5S2/c26-25(27,28)17-4-3-5-18(13-17)38(34,35)31-21(24-29-19-6-1-2-7-20(19)30-24)12-15-8-10-16(11-9-15)22-14-23(33)32-39(22,36)37/h1-11,13,21-22,31H,12,14H2,(H,29,30)(H,32,33)

> <Ligand InChI Key>
JLRMKUWMFIWDPO-UHFFFAOYSA-N

> <BindingDB MonomerID>
50189675

> <BindingDB Ligand Name>
CHEMBL436933::N-{1-(1H-benzoimidazol-2-yl)-2-[4-(1,1,3-trioxo-1lambda*6*-isothiazolidin-5-yl)-phenyl]-ethyl}-3-trifluoromethyl-benzenesulfonamide::N-{1-(1H-benzoimidazol-2-yl)-2-[4-(1,1,3-trioxo-1lamb
da6-isothiazolidin-5-yl)-phenyl]-ethyl}-3-trifluoromethyl-benzenesulfonamide

> <Target Name>
Tyrosine-protein phosphatase non-receptor type 1

> <Target Source Organism According to Curator or DataSource>
Homo sapiens

> <IC50 (nM)>
67

> <Curation/DataSource>
ChEMBL

> <Article DOI>
10.1016/j.bmcl.2007.11.012

> <BindingDB Entry DOI>
10.7270/Q2BV7GCQ

> <PMID>
18037290

> <Authors>
Douty, B; Wayland, B; Ala, PJ; Bower, MJ; Pruitt, J; Bostrom, L; Wei, M; Klabe, R; Gonneville, L; Wynn, R; Burn, TC; Liu, PC; Combs, AP; Yue, EW

> <Institution>
Incyte Corporation

> <Link to Ligand in BindingDB>
http://www.bindingdb.org/bind/chemsearch/marvin/MolStructure.jsp?monomerid=50189675

> <Link to Ligand-Target Pair in BindingDB>
http://www.bindingdb.org/jsp/dbsearch/PrimarySearch_ki.jsp?energyterm=kJ/mole&tag=pol&polymerid=2622&target=Tyrosine-protein+phosphatase+non-receptor+type+1&column=ki&startPg=0&Increment=50&submit=Sea
rch
http://www.bindingdb.org/jsp/dbsearch/PrimarySearch_ki.jsp?energyterm=kJ/mole&tag=r21&monomerid=50189675&enzyme=Tyrosine-protein+phosphatase+non-receptor+type+1&column=ki&startPg=0&Increment=50&submit
=Search

> <PubChem CID of Ligand>
21878588

> <PubChem SID of Ligand>
104073196

> <ChEMBL ID of Ligand>
CHEMBL436933

> <ZINC ID of Ligand>
ZINC36088681

> <Number of Protein Chains in Target (bigger than 1 implies a multichain complex)>
1

> <BindingDB Target Chain Sequence>
MEMEKEFEQIDKSGSWAAIYQDIRHEASDFPCRVAKLPKNKNRNRYRDVSPFDHSRIKLHQEDNDYINASLIKMEEAQRSYILTQGPLPNTCGHFWEMVWEQKSRGVVMLNRVMEKGSLKCAQYWPQKEEKEMIFEDTNLKLTLISEDIKSYYTVRQLELENLTTQETREILHFHYTTWPDFGVPESPASFLNFLFKVRE
SGSLSPEHGPVVVHCSAGIGRSGTFCLADTCLLLMDKRKDPSSVDIKKVLLEMRKFRMGLIQTADQLRFSYLAVIEGAKFIMGDSSVQDQWKELSHEDLEPPPEHIPPPPRPPKRILEPHNGKCREFFPNHQWVKEETQEDKDCPIKEEKGSPLNAAPYGIESMSQDTEVRSRVVGGSLRGAQAASPAKGEPSLPEKDED
HALSYWKPFLVNMCVATVLTAGAYLCYRFLFNSNT

> <PDB ID(s) of Target Chain>
1BZJ,1G7G,1GFY,1JF7,1KAK,1KAV,1LQF,1NL9,1NNY,1NO6,1NZ7,1OEM,1OEO,1OES,1OET,1OEU,1OEV,1ONY,1ONZ,1PH0,1PXH,1PYN,1Q1M,1Q6J,1Q6M,1Q6N,1Q6P,1Q6S,1Q6T,1QXK,1SUG,1T48,1T49,1T4J,1WAX,1XBO,2AZR,2B07,2BGD,2BGE,
2CM2,2CM3,2CM7,2CM8,2CMA,2CMB,2CMC,2CNE,2CNF,2CNG,2CNH,2CNI,2F6T,2F6V,2F6W,2F6Y,2F6Z,2F70,2F71,2FJN,2H4G,2H4K,2HB1,2HNP,2HNQ,2QBP,2QBQ,2QBR,2QBS,2VEU,2VEV,2VEW,2VEX,2VEY,2ZMM,2ZN7,3A5J,3CWE,3D9C,3EAX,
3EB1,3EU0,3I7Z,3I80,3SME,4BJO,4I8N,4QBW,4Y14,5K9V,5K9W,5KA0,5KA1,5T19,6B90,6NTP,6W30,7KEY,7KLX,7LFO,7MN9,7MNA,8DU7,8G65,8G67,8G68,8G69,8G6A,8SKL

> <UniProt (SwissProt) Recommended Name of Target Chain>
Tyrosine-protein phosphatase non-receptor type 1

> <UniProt (SwissProt) Entry Name of Target Chain>
PTN1_HUMAN

> <UniProt (SwissProt) Primary ID of Target Chain>
P18031

> <UniProt (SwissProt) Secondary ID(s) of Target Chain>
Q5TGD8 Q9BQV9 Q9NQQ4

$$$$
Molecule
  SciTegic10242319433D

 69 70  0  0  0  0            999 V2000
   30.2876   -5.2285    1.2683 O   0  0
   30.5842   -5.8463   -0.0857 S   0  0
   30.4513   -4.7926   -1.1697 O   0  0
   33.4419   -4.4444    0.0151 C   0  0
   33.4032   -5.7797   -0.0377 C   0  0
   34.6713   -6.5287   -0.0519 C   0  0
   35.8583   -5.9081   -0.0196 C   0  0
   35.9024   -4.4294    0.0288 C   0  0
   34.7509   -3.7525    0.0471 C   0  0
   32.1753   -6.5268   -0.0806 N   0  0
   29.3770   -7.1545   -0.4152 C   0  0
   32.2581   -3.7030    0.0372 O   0  0
   32.5021   -2.2956    0.0877 C   0  0
   31.1506   -1.5556    0.0874 C   0  0
   37.0451   -6.6630   -0.0262 O   0  0
   36.7485   -8.0757   -0.0640 C   0  0
   38.0521   -8.8906   -0.0371 C   0  0
   37.2153   -3.6153    0.0587 C   0  0
   38.4699   -4.3625    0.0259 N   0  0
   39.6991   -3.6126    0.0150 C   0  0
   40.9746   -4.2780    0.0008 N   0  0
   39.6348   -2.3786    0.0287 O   0  0
   42.2691   -3.6087    0.0001 C   0  0
   43.3702   -4.3503    0.0001 C   0  0
   44.7808   -3.8207   -0.0002 C   0  0
   44.8908   -2.4342    0.0006 C   0  0
   43.6263   -1.6384    0.0002 C   0  0
   42.4114   -2.1803    0.0007 C   0  0
   46.0782   -1.5179   -0.0003 O   0  0
   47.4226   -1.9764   -0.0028 C   0  0
   45.9856   -4.9220    0.0015 C   0  0
   45.8940   -6.3918   -0.0015 O   0  0
   47.1555   -4.5662    0.0066 O   0  0
   44.6487   -7.1008   -0.0075 C   0  0
   48.4524   -0.8416    0.0009 C   0  0
   49.8625   -1.4769   -0.0020 C   0  0
   34.6434   -7.6177   -0.0896 H   0  0
   34.7754   -2.6635    0.0865 H   0  0
   32.2519   -7.5936   -0.1119 H   0  0
   29.5833   -7.6036   -1.3867 H   0  0
   28.3727   -6.7307   -0.4173 H   0  0
   29.4472   -7.9179    0.3596 H   0  0
   33.0526   -2.0520    0.9964 H   0  0
   33.0848   -1.9937   -0.7826 H   0  0
   31.3245   -0.4803    0.1258 H   0  0
   30.5688   -1.8603    0.9574 H   0  0
   30.6010   -1.8020   -0.8211 H   0  0
   36.1407   -8.3396    0.8015 H   0  0
   36.1994   -8.3042   -0.9775 H   0  0
   37.8169   -9.9545   -0.0660 H   0  0
   38.6031   -8.6656    0.8761 H   0  0
   38.6619   -8.6302   -0.9023 H   0  0
   37.2078   -2.9510   -0.8054 H   0  0
   37.2116   -3.0225    0.9734 H   0  0
   38.4755   -5.4324    0.0105 H   0  0
   40.9726   -5.3480   -0.0101 H   0  0
   43.2433   -5.4328    0.0004 H   0  0
   43.7037   -0.5512   -0.0004 H   0  0
   41.5276   -1.5423    0.0016 H   0  0
   47.5803   -2.5889    0.8850 H   0  0
   47.5793   -2.5822   -0.8953 H   0  0
   44.8408   -8.1737   -0.0087 H   0  0
   44.0816   -6.8327   -0.8990 H   0  0
   44.0750   -6.8360    0.8808 H   0  0
   48.3238   -0.2225   -0.8869 H   0  0
   48.3246   -0.2290    0.8934 H   0  0
   50.6163   -0.6896    0.0005 H   0  0
   49.9828   -2.0914   -0.8942 H   0  0
   49.9836   -2.0980    0.8855 H   0  0
  2  1  2  0
  3  2  2  0
  4  5  2  0
  5  6  1  0
  6  7  2  0
  7  8  1  0
  8  9  2  0
  9  4  1  0
  5 10  1  0
 10  2  1  0
  2 11  1  0
  4 12  1  0
 12 13  1  0
 13 14  1  0
  7 15  1  0
 15 16  1  0
 16 17  1  0
  8 18  1  0
 18 19  1  0
 19 20  1  0
 20 21  1  0
 20 22  2  0
 21 23  1  0
 23 24  2  0
 24 25  1  0
 25 26  2  0
 26 27  1  0
 27 28  2  0
 28 23  1  0
 26 29  1  0
 29 30  1  0
 25 31  1  0
 31 32  1  0
 31 33  2  0
 32 34  1  0
 30 35  1  0
 35 36  1  0
  6 37  1  0
  9 38  1  0
 10 39  1  0
 11 40  1  0
 11 41  1  0
 11 42  1  0
 13 43  1  0
 13 44  1  0
 14 45  1  0
 14 46  1  0
 14 47  1  0
 16 48  1  0
 16 49  1  0
 17 50  1  0
 17 51  1  0
 17 52  1  0
 18 53  1  0
 18 54  1  0
 19 55  1  0
 21 56  1  0
 24 57  1  0
 27 58  1  0
 28 59  1  0
 30 60  1  0
 30 61  1  0
 34 62  1  0
 34 63  1  0
 34 64  1  0
 35 65  1  0
 35 66  1  0
 36 67  1  0
 36 68  1  0
 36 69  1  0
M  END
> <Name>
Molecule

> <Clean Energy>
35.8023

> <From>
www.bindingDB.org

> <BindingDB Reactant_set_id>
51024540

> <Ligand InChI>
InChI=1S/C24H33N3O8S/c1-6-11-35-20-10-9-17(13-18(20)23(28)32-4)26-24(29)25-15-16-12-22(34-8-3)19(27-36(5,30)31)14-21(16)33-7-2/h9-10,12-14,27H,6-8,11,15H2,1-5H3,(H2,25,26,29)

> <Ligand InChI Key>
IZZJSWADFKQUIR-UHFFFAOYSA-N

> <BindingDB MonomerID>
50290910

> <BindingDB Ligand Name>
CHEMBL4172149

> <Target Name>
Tyrosine-protein phosphatase non-receptor type 1

> <Target Source Organism According to Curator or DataSource>
Homo sapiens

> <IC50 (nM)>
68

> <Curation/DataSource>
ChEMBL

> <Article DOI>
10.1016/j.ejmech.2017.12.064

> <BindingDB Entry DOI>
10.7270/Q23B62P2

> <PMID>
29289892

> <Authors>
Du, Y; Zhang, Y; Ling, H; Li, Q; Shen, J

> <Institution>
Qilu University of Technology (Shandong Academy of Sciences)

> <Link to Ligand in BindingDB>
http://www.bindingdb.org/bind/chemsearch/marvin/MolStructure.jsp?monomerid=50290910

> <Link to Ligand-Target Pair in BindingDB>
http://www.bindingdb.org/jsp/dbsearch/PrimarySearch_ki.jsp?energyterm=kJ/mole&tag=pol&polymerid=2622&target=Tyrosine-protein+phosphatase+non-receptor+type+1&column=ki&startPg=0&Increment=50&submit=Sea
rch
http://www.bindingdb.org/jsp/dbsearch/PrimarySearch_ki.jsp?energyterm=kJ/mole&tag=r21&monomerid=50290910&enzyme=Tyrosine-protein+phosphatase+non-receptor+type+1&column=ki&startPg=0&Increment=50&submit
=Search

> <PubChem CID of Ligand>
44335834

> <PubChem SID of Ligand>
104132462

> <ZINC ID of Ligand>
ZINC36189083

> <Number of Protein Chains in Target (bigger than 1 implies a multichain complex)>
1

> <BindingDB Target Chain Sequence>
MEMEKEFEQIDKSGSWAAIYQDIRHEASDFPCRVAKLPKNKNRNRYRDVSPFDHSRIKLHQEDNDYINASLIKMEEAQRSYILTQGPLPNTCGHFWEMVWEQKSRGVVMLNRVMEKGSLKCAQYWPQKEEKEMIFEDTNLKLTLISEDIKSYYTVRQLELENLTTQETREILHFHYTTWPDFGVPESPASFLNFLFKVRE
SGSLSPEHGPVVVHCSAGIGRSGTFCLADTCLLLMDKRKDPSSVDIKKVLLEMRKFRMGLIQTADQLRFSYLAVIEGAKFIMGDSSVQDQWKELSHEDLEPPPEHIPPPPRPPKRILEPHNGKCREFFPNHQWVKEETQEDKDCPIKEEKGSPLNAAPYGIESMSQDTEVRSRVVGGSLRGAQAASPAKGEPSLPEKDED
HALSYWKPFLVNMCVATVLTAGAYLCYRFLFNSNT

> <PDB ID(s) of Target Chain>
1BZJ,1G7G,1GFY,1JF7,1KAK,1KAV,1LQF,1NL9,1NNY,1NO6,1NZ7,1OEM,1OEO,1OES,1OET,1OEU,1OEV,1ONY,1ONZ,1PH0,1PXH,1PYN,1Q1M,1Q6J,1Q6M,1Q6N,1Q6P,1Q6S,1Q6T,1QXK,1SUG,1T48,1T49,1T4J,1WAX,1XBO,2AZR,2B07,2BGD,2BGE,
2CM2,2CM3,2CM7,2CM8,2CMA,2CMB,2CMC,2CNE,2CNF,2CNG,2CNH,2CNI,2F6T,2F6V,2F6W,2F6Y,2F6Z,2F70,2F71,2FJN,2H4G,2H4K,2HB1,2HNP,2HNQ,2QBP,2QBQ,2QBR,2QBS,2VEU,2VEV,2VEW,2VEX,2VEY,2ZMM,2ZN7,3A5J,3CWE,3D9C,3EAX,
3EB1,3EU0,3I7Z,3I80,3SME,4BJO,4I8N,4QBW,4Y14,5K9V,5K9W,5KA0,5KA1,5T19,6B90,6NTP,6W30,7KEY,7KLX,7LFO,7MN9,7MNA,8DU7,8G65,8G67,8G68,8G69,8G6A,8SKL

> <UniProt (SwissProt) Recommended Name of Target Chain>
Tyrosine-protein phosphatase non-receptor type 1

> <UniProt (SwissProt) Entry Name of Target Chain>
PTN1_HUMAN

> <UniProt (SwissProt) Primary ID of Target Chain>
P18031

> <UniProt (SwissProt) Secondary ID(s) of Target Chain>
Q5TGD8 Q9BQV9 Q9NQQ4

$$$$
Molecule
  SciTegic10242319433D

 76 81  0  0  0  0            999 V2000
   -2.6564   -1.2168    0.1417 N   0  0
   -2.3653   -2.5674    0.1055 N   0  0
    5.6331    4.5163   -0.0449 S   0  0
   -1.3843   -0.1645    0.1569 C   0  0  1  0  0  0
    1.6462   -6.7557    0.2753 P   0  0
    2.7053   -5.4806    0.0205 C   0  0
   -3.3169   -3.3040   -0.1250 N   0  0
   -4.1284   -1.2178   -0.1925 C   0  0
    6.1082    2.7679   -0.0545 C   0  0
   -4.4431   -2.5634   -0.3066 C   0  0
    5.2840    1.6903    0.1458 C   0  0
    1.9106   -4.2012   -0.1944 C   0  0
    4.2157    4.8292   -0.4732 O   0  0
    5.8339    4.8622    1.4082 O   0  0
   -0.6913    1.2629    0.6014 C   0  0
   -0.5573   -0.6077   -1.0850 C   0  0
    0.8918   -6.5420    1.4119 O   0  0
    3.7430    1.6653    0.2918 C   0  0
   -2.4394    1.0362    0.1755 C   0  0
    6.6958    5.6073   -0.8900 N   0  0
    3.4819   -5.7325   -1.0918 F   0  0
    3.4897   -5.3826    1.1515 F   0  0
    0.7034   -6.8870   -0.9478 O   0  0
    2.4470   -8.0723    0.4466 O   0  0
    2.0509   -3.4713   -1.4595 C   0  0
    1.0577   -3.7513    0.7213 C   0  0
    3.1308    0.4366    0.8177 C   0  0
    2.9267    2.6569   -0.0410 C   0  0
    0.8937    1.3997    0.5357 C   0  0
    0.3417   -1.8983   -0.7373 C   0  0
    1.8065    0.3220    0.9440 C   0  0
    1.4444    2.5288    0.0740 C   0  0
    1.3088   -2.3902   -1.7167 C   0  0
    0.2555   -2.5453    0.4411 C   0  0
   -5.0831   -0.2988   -0.3935 C   0  0
    7.5638    2.5369   -0.1551 C   0  0
    5.9086    0.3532    0.2301 C   0  0
   -5.6562   -3.0299   -0.5742 C   0  0
   -3.0874    1.3238    1.3384 C   0  0
   -2.6792    1.9261   -0.9924 C   0  0
   -6.4599   -0.7548   -0.6888 C   0  0
    7.2240    0.1822    0.1496 C   0  0
    8.0868    1.3198   -0.0635 C   0  0
   -6.7330   -2.0613   -0.7634 C   0  0
   -3.5408    2.9501   -0.8949 C   0  0
   -4.0497    2.4491    1.4270 C   0  0
   -4.2647    3.2185    0.3624 C   0  0
   -1.1065    2.0356   -0.0456 H   0  0
   -0.9867    1.4547    1.6330 H   0  0
   -1.2386   -0.8548   -1.8992 H   0  0
    0.0945    0.2105   -1.3916 H   0  0
    6.7534    5.3235   -1.9201 H   0  0
    7.6718    5.5649   -0.4536 H   0  0
    0.1600   -5.9966   -1.0686 H   0  0
    3.0101   -8.2553   -0.4206 H   0  0
    2.7716   -3.8162   -2.2009 H   0  0
    0.9518   -4.2708    1.6737 H   0  0
    3.7700   -0.3965    1.1100 H   0  0
    3.3506    3.5913   -0.4088 H   0  0
    1.3910   -0.5953    1.3612 H   0  0
    0.8052    3.3612   -0.2202 H   0  0
    1.4259   -1.8695   -2.6671 H   0  0
   -0.4235   -2.1686    1.2061 H   0  0
   -4.8499    0.7646   -0.3404 H   0  0
    8.2265    3.3886   -0.3085 H   0  0
    5.2700   -0.5202    0.3624 H   0  0
   -5.8431   -4.1011   -0.6504 H   0  0
   -2.8949    0.7148    2.2217 H   0  0
   -2.1534    1.7458   -1.9300 H   0  0
   -7.2530   -0.0237   -0.8457 H   0  0
    7.6512   -0.8162    0.2443 H   0  0
    9.1644    1.1801   -0.1491 H   0  0
   -7.7493   -2.4004   -0.9635 H   0  0
   -3.7086    3.5939   -1.7583 H   0  0
   -4.5784    2.6451    2.3599 H   0  0
   -4.9737    4.0445    0.4193 H   0  0
  2  1  1  0
  3  9  1  0
  4  1  1  0
  5  6  1  0
  6 12  1  0
  7  2  2  0
  8  1  1  0
  9 11  2  0
 10  8  1  0
 11 18  1  0
 12 26  2  0
 13  3  2  0
 14  3  2  0
 15  4  1  0
 16  4  1  0
 17  5  2  0
 18 28  2  0
 19  4  1  0
 20  3  1  0
 21  6  1  0
 22  6  1  0
 23  5  1  0
 24  5  1  0
 25 33  2  0
 26 34  1  0
 27 31  2  0
 28 32  1  0
 29 15  1  0
 30 16  1  0
 31 29  1  0
 32 29  2  0
 33 30  1  0
 34 30  2  0
 35  8  2  0
 36  9  1  0
 37 11  1  0
 38 10  2  0
 39 19  2  0
 40 19  1  0
 41 35  1  0
 42 37  2  0
 43 42  1  0
 44 41  2  0
 45 40  2  0
 46 39  1  0
 47 45  1  0
  7 10  1  0
 38 44  1  0
 46 47  2  0
 25 12  1  0
 18 27  1  0
 43 36  2  0
 15 48  1  0
 15 49  1  0
 16 50  1  0
 16 51  1  0
 20 52  1  0
 20 53  1  0
 23 54  1  0
 24 55  1  0
 25 56  1  0
 26 57  1  0
 27 58  1  0
 28 59  1  0
 31 60  1  0
 32 61  1  0
 33 62  1  0
 34 63  1  0
 35 64  1  0
 36 65  1  0
 37 66  1  0
 38 67  1  0
 39 68  1  0
 40 69  1  0
 41 70  1  0
 42 71  1  0
 43 72  1  0
 44 73  1  0
 45 74  1  0
 46 75  1  0
 47 76  1  0
M  END
> <Name>
Molecule

> <Clean Energy>
204.315

> <From>
www.bindingDB.org

> <BindingDB Reactant_set_id>
50261746

> <Ligand InChI>
InChI=1S/C34H29F2N4O5PS/c35-34(36,46(41,42)43)28-20-16-25(17-21-28)23-33(27-8-2-1-3-9-27,40-31-12-6-5-11-30(31)38-39-40)22-24-14-18-26(19-15-24)29-10-4-7-13-32(29)47(37,44)45/h1-21H,22-23H2,(H2,37,44,
45)(H2,41,42,43)

> <Ligand InChI Key>
RCYZJMHAZBYKMI-UHFFFAOYSA-N

> <BindingDB MonomerID>
50142322

> <BindingDB Ligand Name>
({4-[2-Benzotriazol-1-yl-2-phenyl-3-(2'-sulfamoyl-biphenyl-4-yl)-propyl]-phenyl}-difluoro-methyl)-phosphonic acid::CHEMBL9252

> <Target Name>
Tyrosine-protein phosphatase non-receptor type 1

> <Target Source Organism According to Curator or DataSource>
Homo sapiens

> <IC50 (nM)>
69

> <Curation/DataSource>
ChEMBL

> <Article DOI>
10.1016/j.bmcl.2003.11.076

> <BindingDB Entry DOI>
10.7270/Q24M9404

> <PMID>
15013020

> <Authors>
Lau, CK; Bayly, CI; Gauthier, JY; Li, CS; Therien, M; Asante-Appiah, E; Cromlish, W; Boie, Y; Forghani, F; Desmarais, S; Wang, Q; Skorey, K; Waddleton, D; Payette, P; Ramachandran, C; Kennedy, BP; Sca
pin, G

> <Institution>
Merck Frosst Centre for Therapeutic Research

> <Link to Ligand in BindingDB>
http://www.bindingdb.org/bind/chemsearch/marvin/MolStructure.jsp?monomerid=50142322

> <Link to Ligand-Target Pair in BindingDB>
http://www.bindingdb.org/jsp/dbsearch/PrimarySearch_ki.jsp?energyterm=kJ/mole&tag=pol&polymerid=2622&target=Tyrosine-protein+phosphatase+non-receptor+type+1&column=ki&startPg=0&Increment=50&submit=Sea
rch
http://www.bindingdb.org/jsp/dbsearch/PrimarySearch_ki.jsp?energyterm=kJ/mole&tag=r21&monomerid=50142322&enzyme=Tyrosine-protein+phosphatase+non-receptor+type+1&column=ki&startPg=0&Increment=50&submit
=Search

> <PubChem CID of Ligand>
10305270

> <PubChem SID of Ligand>
104031713

> <ChEMBL ID of Ligand>
CHEMBL9252

> <ZINC ID of Ligand>
ZINC25993925

> <Number of Protein Chains in Target (bigger than 1 implies a multichain complex)>
1

> <BindingDB Target Chain Sequence>
MEMEKEFEQIDKSGSWAAIYQDIRHEASDFPCRVAKLPKNKNRNRYRDVSPFDHSRIKLHQEDNDYINASLIKMEEAQRSYILTQGPLPNTCGHFWEMVWEQKSRGVVMLNRVMEKGSLKCAQYWPQKEEKEMIFEDTNLKLTLISEDIKSYYTVRQLELENLTTQETREILHFHYTTWPDFGVPESPASFLNFLFKVRE
SGSLSPEHGPVVVHCSAGIGRSGTFCLADTCLLLMDKRKDPSSVDIKKVLLEMRKFRMGLIQTADQLRFSYLAVIEGAKFIMGDSSVQDQWKELSHEDLEPPPEHIPPPPRPPKRILEPHNGKCREFFPNHQWVKEETQEDKDCPIKEEKGSPLNAAPYGIESMSQDTEVRSRVVGGSLRGAQAASPAKGEPSLPEKDED
HALSYWKPFLVNMCVATVLTAGAYLCYRFLFNSNT

> <PDB ID(s) of Target Chain>
1BZJ,1G7G,1GFY,1JF7,1KAK,1KAV,1LQF,1NL9,1NNY,1NO6,1NZ7,1OEM,1OEO,1OES,1OET,1OEU,1OEV,1ONY,1ONZ,1PH0,1PXH,1PYN,1Q1M,1Q6J,1Q6M,1Q6N,1Q6P,1Q6S,1Q6T,1QXK,1SUG,1T48,1T49,1T4J,1WAX,1XBO,2AZR,2B07,2BGD,2BGE,
2CM2,2CM3,2CM7,2CM8,2CMA,2CMB,2CMC,2CNE,2CNF,2CNG,2CNH,2CNI,2F6T,2F6V,2F6W,2F6Y,2F6Z,2F70,2F71,2FJN,2H4G,2H4K,2HB1,2HNP,2HNQ,2QBP,2QBQ,2QBR,2QBS,2VEU,2VEV,2VEW,2VEX,2VEY,2ZMM,2ZN7,3A5J,3CWE,3D9C,3EAX,
3EB1,3EU0,3I7Z,3I80,3SME,4BJO,4I8N,4QBW,4Y14,5K9V,5K9W,5KA0,5KA1,5T19,6B90,6NTP,6W30,7KEY,7KLX,7LFO,7MN9,7MNA,8DU7,8G65,8G67,8G68,8G69,8G6A,8SKL

> <UniProt (SwissProt) Recommended Name of Target Chain>
Tyrosine-protein phosphatase non-receptor type 1

> <UniProt (SwissProt) Entry Name of Target Chain>
PTN1_HUMAN

> <UniProt (SwissProt) Primary ID of Target Chain>
P18031

> <UniProt (SwissProt) Secondary ID(s) of Target Chain>
Q5TGD8 Q9BQV9 Q9NQQ4

$$$$
Molecule
  SciTegic10242319433D

 61 62  0  0  0  0            999 V2000
   10.6697  -22.6282    0.4460 C   0  0
   10.5602  -24.0079   -0.0410 C   0  0
   11.6647  -24.7095   -0.2894 C   0  0
   12.9852  -24.1115   -0.0861 C   0  0
   13.0950  -22.8623    0.3601 C   0  0
   11.8731  -22.0867    0.6430 C   0  0
    9.3056  -24.6044   -0.2559 N   0  0
    7.8478  -23.7212   -0.1164 S   0  0
    7.8278  -22.6193   -1.1588 O   0  0
    7.7297  -23.1116    1.2677 O   0  0
   14.4558  -22.2145    0.5866 C   0  0
   15.5777  -22.6489   -0.4232 C   0  0  1  0  0  0
   16.7827  -21.7491   -0.1491 C   0  0
   15.8232  -24.1306   -0.5074 N   0  0
   18.0210  -22.0666   -0.2251 N   0  0
   18.9075  -20.9437    0.1053 C   0  0
   18.2819  -19.7974    0.4077 C   0  0
   16.6613  -20.1464    0.2816 S   0  0
   20.4025  -21.0756    0.1148 C   0  0
   20.7904  -22.5377   -0.1744 C   0  0
   16.9107  -24.8280   -0.0939 C   0  0
   16.9556  -26.3260   -0.3651 C   0  0  2  0  0  0
   17.8659  -24.2901    0.4484 O   0  0
   15.6756  -26.9476    0.3290 C   0  0
   15.4029  -28.4894    0.0983 C   0  0
   13.9938  -28.8209    0.6153 C   0  0
   16.3873  -29.4242    0.8420 C   0  0
   18.2951  -26.9076    0.0874 C   0  0
   18.7956  -28.0581   -0.5313 O   0  0
   20.0683  -28.3980    0.0341 C   0  0
   18.9592  -26.3504    0.9637 O   0  0
    6.5348  -24.7694   -0.3846 O   0  0
    9.7698  -22.0467    0.6464 H   0  0
   11.5847  -25.7362   -0.6467 H   0  0
   13.8826  -24.6918   -0.3009 H   0  0
   11.9534  -21.0653    1.0152 H   0  0
    9.2614  -25.6417   -0.5145 H   0  0
   14.3323  -21.1343    0.5095 H   0  0
   14.7888  -22.4718    1.5921 H   0  0
   15.2132  -22.3569   -1.4080 H   0  0
   15.0393  -24.7087   -0.9503 H   0  0
   18.7366  -18.8443    0.6776 H   0  0
   20.8292  -20.4282   -0.6512 H   0  0
   20.7866  -20.7845    1.0925 H   0  0
   21.8761  -22.6342   -0.1676 H   0  0
   20.4064  -22.8294   -1.1519 H   0  0
   20.3638  -23.1856    0.5913 H   0  0
   16.8658  -26.4786   -1.4406 H   0  0
   15.7763  -26.7900    1.4029 H   0  0
   14.8063  -26.4026   -0.0389 H   0  0
   15.4488  -28.7024   -0.9697 H   0  0
   13.7904  -29.8808    0.4633 H   0  0
   13.2580  -28.2286    0.0712 H   0  0
   13.9323  -28.5885    1.6784 H   0  0
   16.1322  -30.4628    0.6316 H   0  0
   16.3198  -29.2442    1.9149 H   0  0
   17.4042  -29.2248    0.5039 H   0  0
   20.4542  -29.2946   -0.4509 H   0  0
   19.9540  -28.5838    1.1021 H   0  0
   20.7658  -27.5744   -0.1184 H   0  0
    6.6069  -25.1821   -1.3474 H   0  0
  7  8  1  0
 13 15  2  0
 16 17  2  0
 17 18  1  0
 18 13  1  0
  8  9  2  0
 16 19  1  0
  4  5  2  0
 19 20  1  0
  8 10  2  0
 14 21  1  0
  2  3  2  0
 22 21  1  0
  5 11  1  0
 21 23  2  0
  5  6  1  0
 22 24  1  0
 12 11  1  0
 24 25  1  0
  6  1  2  0
 25 26  1  0
 12 13  1  0
 25 27  1  0
  1  2  1  0
 22 28  1  0
 12 14  1  0
 28 29  1  0
 15 16  1  0
 29 30  1  0
  2  7  1  0
 28 31  2  0
  3  4  1  0
  8 32  1  0
  1 33  1  0
  3 34  1  0
  4 35  1  0
  6 36  1  0
  7 37  1  0
 11 38  1  0
 11 39  1  0
 12 40  1  0
 14 41  1  0
 17 42  1  0
 19 43  1  0
 19 44  1  0
 20 45  1  0
 20 46  1  0
 20 47  1  0
 22 48  1  0
 24 49  1  0
 24 50  1  0
 25 51  1  0
 26 52  1  0
 26 53  1  0
 26 54  1  0
 27 55  1  0
 27 56  1  0
 27 57  1  0
 30 58  1  0
 30 59  1  0
 30 60  1  0
 32 61  1  0
M  END
> <Name>
Molecule

> <Clean Energy>
72.7193

> <From>
www.bindingDB.org

> <BindingDB Reactant_set_id>
50554743

> <Ligand InChI>
InChI=1S/C21H29N3O6S2/c1-5-15-12-31-20(22-15)18(23-19(25)17(10-13(2)3)21(26)30-4)11-14-6-8-16(9-7-14)24-32(27,28)29/h6-9,12-13,17-18,24H,5,10-11H2,1-4H3,(H,23,25)(H,27,28,29)/t17-,18-/m0/s1

> <Ligand InChI Key>
PHPUVRAXHKLHIQ-ROUUACIJSA-N

> <BindingDB MonomerID>
50308835

> <BindingDB Ligand Name>
4-((S)-2-(4-ethylthiazol-2-yl)-2-((S)-2-(methoxycarbonyl)-4-methylpentanamido)ethyl)phenylsulfamic acid::CHEMBL590155

> <Target Name>
Tyrosine-protein phosphatase non-receptor type 1

> <Target Source Organism According to Curator or DataSource>
Homo sapiens

> <IC50 (nM)>
70

> <Curation/DataSource>
ChEMBL

> <Article DOI>
10.1021/jm901090b

> <BindingDB Entry DOI>
10.7270/Q28P60MB

> <PMID>
20000419

> <Authors>
Combs, AP

> <Institution>
Incyte Corporation

> <Link to Ligand in BindingDB>
http://www.bindingdb.org/bind/chemsearch/marvin/MolStructure.jsp?monomerid=50308835

> <Link to Ligand-Target Pair in BindingDB>
http://www.bindingdb.org/jsp/dbsearch/PrimarySearch_ki.jsp?energyterm=kJ/mole&tag=pol&polymerid=2622&target=Tyrosine-protein+phosphatase+non-receptor+type+1&column=ki&startPg=0&Increment=50&submit=Sea
rch
http://www.bindingdb.org/jsp/dbsearch/PrimarySearch_ki.jsp?energyterm=kJ/mole&tag=r21&monomerid=50308835&enzyme=Tyrosine-protein+phosphatase+non-receptor+type+1&column=ki&startPg=0&Increment=50&submit
=Search

> <PubChem CID of Ligand>
24815971

> <PubChem SID of Ligand>
104163196

> <ChEMBL ID of Ligand>
CHEMBL590155

> <KEGG ID of Ligand>
C01614

> <ZINC ID of Ligand>
ZINC45339167

> <Number of Protein Chains in Target (bigger than 1 implies a multichain complex)>
1

> <BindingDB Target Chain Sequence>
MEMEKEFEQIDKSGSWAAIYQDIRHEASDFPCRVAKLPKNKNRNRYRDVSPFDHSRIKLHQEDNDYINASLIKMEEAQRSYILTQGPLPNTCGHFWEMVWEQKSRGVVMLNRVMEKGSLKCAQYWPQKEEKEMIFEDTNLKLTLISEDIKSYYTVRQLELENLTTQETREILHFHYTTWPDFGVPESPASFLNFLFKVRE
SGSLSPEHGPVVVHCSAGIGRSGTFCLADTCLLLMDKRKDPSSVDIKKVLLEMRKFRMGLIQTADQLRFSYLAVIEGAKFIMGDSSVQDQWKELSHEDLEPPPEHIPPPPRPPKRILEPHNGKCREFFPNHQWVKEETQEDKDCPIKEEKGSPLNAAPYGIESMSQDTEVRSRVVGGSLRGAQAASPAKGEPSLPEKDED
HALSYWKPFLVNMCVATVLTAGAYLCYRFLFNSNT

> <PDB ID(s) of Target Chain>
1BZJ,1G7G,1GFY,1JF7,1KAK,1KAV,1LQF,1NL9,1NNY,1NO6,1NZ7,1OEM,1OEO,1OES,1OET,1OEU,1OEV,1ONY,1ONZ,1PH0,1PXH,1PYN,1Q1M,1Q6J,1Q6M,1Q6N,1Q6P,1Q6S,1Q6T,1QXK,1SUG,1T48,1T49,1T4J,1WAX,1XBO,2AZR,2B07,2BGD,2BGE,
2CM2,2CM3,2CM7,2CM8,2CMA,2CMB,2CMC,2CNE,2CNF,2CNG,2CNH,2CNI,2F6T,2F6V,2F6W,2F6Y,2F6Z,2F70,2F71,2FJN,2H4G,2H4K,2HB1,2HNP,2HNQ,2QBP,2QBQ,2QBR,2QBS,2VEU,2VEV,2VEW,2VEX,2VEY,2ZMM,2ZN7,3A5J,3CWE,3D9C,3EAX,
3EB1,3EU0,3I7Z,3I80,3SME,4BJO,4I8N,4QBW,4Y14,5K9V,5K9W,5KA0,5KA1,5T19,6B90,6NTP,6W30,7KEY,7KLX,7LFO,7MN9,7MNA,8DU7,8G65,8G67,8G68,8G69,8G6A,8SKL

> <UniProt (SwissProt) Recommended Name of Target Chain>
Tyrosine-protein phosphatase non-receptor type 1

> <UniProt (SwissProt) Entry Name of Target Chain>
PTN1_HUMAN

> <UniProt (SwissProt) Primary ID of Target Chain>
P18031

> <UniProt (SwissProt) Secondary ID(s) of Target Chain>
Q5TGD8 Q9BQV9 Q9NQQ4

$$$$
Molecule
  SciTegic10242319433D

 73 78  0  0  0  0            999 V2000
    0.8761   -6.3873   -0.0003 C   0  0
    1.3678   -5.1148   -0.0001 C   0  0
   -0.8345   -6.3492    0.0001 S   0  0
    8.9351   -1.8735    0.0002 C   0  0
    9.4286   -0.4586    0.0027 C   0  0
    0.2187   -4.0916    0.0006 C   0  0
   -1.0674   -4.7221    0.0007 C   0  0
    7.6173   -2.1679    0.0009 C   0  0
    8.5871    0.5768    0.0003 C   0  0
    7.1537   -3.5974   -0.0010 C   0  0
    2.8634   -4.7229    0.0004 C   0  0
    9.9379   -2.9411    0.0027 C   0  0
    1.6802   -7.6707   -0.0007 C   0  0
   11.9227   -5.0221    0.0047 C   0  0
    5.6496   -3.9733   -0.0007 C   0  0
   11.3208   -2.5691   -0.0024 O   0  0
    9.1116    1.9582    0.0021 C   0  0
    8.0828   -4.5566    0.0007 C   0  0
   11.1831   -5.7832    0.0297 O   0  0
    9.0553   -3.7398   -0.0319 C   0  0
    3.2344   -3.4348    0.0009 C   0  0
    3.9317   -5.7466   -0.0012 C   0  0
    5.2280   -5.4004   -0.0015 C   0  0
    4.6895   -3.0395    0.0005 C   0  0
   12.3583   -3.5870   -0.0161 C   0  0
    7.2188    0.3652    0.0014 O   0  0
   12.8492   -6.0361    0.0038 O   0  0
    0.7726   -8.9110   -0.0006 C   0  0
   10.8794   -0.1953    0.0011 C   0  0
    8.2569    3.0639    0.0009 O   0  0
    0.3196   -2.7672    0.0011 C   0  0
   -2.2144   -4.0536    0.0011 C   0  0
   11.3496    1.0462    0.0014 C   0  0
   10.4245    2.1751    0.0005 C   0  0
    6.5185    1.6004    0.0010 C   0  0
    1.3201  -10.1274   -0.0009 C   0  0
   -0.6952   -8.7984    0.0003 C   0  0
    8.9649    4.2683    0.0012 C   0  0
   -0.9394   -1.9748    0.0012 C   0  0
   -2.1344   -2.5833    0.0013 C   0  0
    0.4725  -11.3277   -0.0010 C   0  0
   -1.4643   -9.8775    0.0007 C   0  0
   -0.8530  -11.2087   -0.0004 C   0  0
    6.8835   -1.3619    0.0028 H   0  0
    2.3086   -7.6932   -0.8911 H   0  0
    2.3092   -7.6934    0.8892 H   0  0
    8.0270   -5.6449    0.0222 H   0  0
    9.4574   -4.1987   -0.9351 H   0  0
    2.4696   -2.6582    0.0017 H   0  0
    3.6604   -6.8023   -0.0023 H   0  0
    5.9886   -6.1811   -0.0022 H   0  0
    4.9625   -1.9843    0.0013 H   0  0
   12.9865   -3.4241    0.8597 H   0  0
   12.9489   -3.4385   -0.9202 H   0  0
   13.4400   -5.9702   -0.8617 H   0  0
   11.5767   -1.0331   -0.0003 H   0  0
    1.2932   -2.2770    0.0014 H   0  0
   -3.1739   -4.5708    0.0012 H   0  0
   12.4253    1.2223    0.0023 H   0  0
   10.8088    3.1951   -0.0015 H   0  0
    5.4453    1.4101    0.0019 H   0  0
    6.7853    2.1696   -0.8895 H   0  0
    6.7866    2.1709    0.8903 H   0  0
    2.4051  -10.2318   -0.0012 H   0  0
   -1.1570   -7.8110    0.0005 H   0  0
    8.2636    5.1026    0.0002 H   0  0
    9.5931    4.3213   -0.8881 H   0  0
    9.5913    4.3219    0.8917 H   0  0
   -0.8899   -0.8859    0.0011 H   0  0
   -3.0479   -1.9885    0.0017 H   0  0
    0.9301  -12.3170   -0.0016 H   0  0
   -2.5495   -9.7748    0.0020 H   0  0
   -1.4818  -12.0991   -0.0007 H   0  0
  2  1  2  0
  3  1  1  0
  4  8  2  0
  5  4  1  0
  6  2  1  0
  7  3  1  0
  8 10  1  0
  9  5  2  0
 10 15  1  0
 11  2  1  0
 12 20  2  0
 13  1  1  0
 14 25  1  0
 15 23  1  0
 16 12  1  0
 17  9  1  0
 18 10  2  0
 19 14  2  0
 20 18  1  0
 21 11  2  0
 22 11  1  0
 23 22  2  0
 24 21  1  0
 25 16  1  0
 26  9  1  0
 27 14  1  0
 28 13  1  0
 29  5  1  0
 30 17  1  0
 31  6  2  0
 32  7  2  0
 33 29  2  0
 34 33  1  0
 35 26  1  0
 36 28  2  0
 37 28  1  0
 38 30  1  0
 39 31  1  0
 40 32  1  0
 41 36  1  0
 42 37  2  0
 43 42  1  0
  6  7  1  0
 39 40  2  0
 24 15  2  0
 41 43  2  0
  4 12  1  0
 17 34  2  0
  8 44  1  0
 13 45  1  0
 13 46  1  0
 18 47  1  0
 20 48  1  0
 21 49  1  0
 22 50  1  0
 23 51  1  0
 24 52  1  0
 25 53  1  0
 25 54  1  0
 27 55  1  0
 29 56  1  0
 31 57  1  0
 32 58  1  0
 33 59  1  0
 34 60  1  0
 35 61  1  0
 35 62  1  0
 35 63  1  0
 36 64  1  0
 37 65  1  0
 38 66  1  0
 38 67  1  0
 38 68  1  0
 39 69  1  0
 40 70  1  0
 41 71  1  0
 42 72  1  0
 43 73  1  0
M  END
> <Name>
Molecule

> <Clean Energy>
381.564

> <From>
www.bindingDB.org

> <BindingDB Reactant_set_id>
51015957

> <Ligand InChI>
InChI=1S/C37H30O5S/c1-40-32-13-8-12-28(37(32)41-2)30-22-27(19-20-31(30)42-23-35(38)39)25-15-17-26(18-16-25)36-29-11-6-7-14-33(29)43-34(36)21-24-9-4-3-5-10-24/h3-20,22H,21,23H2,1-2H3,(H,38,39)

> <Ligand InChI Key>
KDPLJACDNJPAMZ-UHFFFAOYSA-N

> <BindingDB MonomerID>
50086905

> <BindingDB Ligand Name>
CHEMBL429385::[4-(2-Benzyl-benzo[b]thiophen-3-yl)-2'',3''-dimethoxy-[1,1':3',1'']terphenyl-4'-yloxy]-acetic acid::[4-(2-Benzyl-benzo[b]thiophen-3-yl)-2'',3''-dimethoxy-[1,1';3',1'']terphenyl-4'-yloxy]
-acetic acid

> <Target Name>
Tyrosine-protein phosphatase non-receptor type 1

> <Target Source Organism According to Curator or DataSource>
Homo sapiens

> <IC50 (nM)>
70.79

> <Curation/DataSource>
ChEMBL

> <Article DOI>
10.1016/j.bmcl.2010.04.033

> <BindingDB Entry DOI>
10.7270/Q27D2WCC

> <PMID>
20452766

> <Authors>
Cheng, Y; Zhou, M; Tung, CH; Ji, M; Zhang, F

> <Institution>
Tsinghua University

> <Link to Ligand in BindingDB>
http://www.bindingdb.org/bind/chemsearch/marvin/MolStructure.jsp?monomerid=50086905

> <Link to Ligand-Target Pair in BindingDB>
http://www.bindingdb.org/jsp/dbsearch/PrimarySearch_ki.jsp?energyterm=kJ/mole&tag=pol&polymerid=2622&target=Tyrosine-protein+phosphatase+non-receptor+type+1&column=ki&startPg=0&Increment=50&submit=Sea
rch
http://www.bindingdb.org/jsp/dbsearch/PrimarySearch_ki.jsp?energyterm=kJ/mole&tag=r21&monomerid=50086905&enzyme=Tyrosine-protein+phosphatase+non-receptor+type+1&column=ki&startPg=0&Increment=50&submit
=Search

> <PubChem CID of Ligand>
10745907

> <PubChem SID of Ligand>
103986016

> <ChEMBL ID of Ligand>
CHEMBL429385

> <ZINC ID of Ligand>
ZINC28758934

> <Number of Protein Chains in Target (bigger than 1 implies a multichain complex)>
1

> <BindingDB Target Chain Sequence>
MEMEKEFEQIDKSGSWAAIYQDIRHEASDFPCRVAKLPKNKNRNRYRDVSPFDHSRIKLHQEDNDYINASLIKMEEAQRSYILTQGPLPNTCGHFWEMVWEQKSRGVVMLNRVMEKGSLKCAQYWPQKEEKEMIFEDTNLKLTLISEDIKSYYTVRQLELENLTTQETREILHFHYTTWPDFGVPESPASFLNFLFKVRE
SGSLSPEHGPVVVHCSAGIGRSGTFCLADTCLLLMDKRKDPSSVDIKKVLLEMRKFRMGLIQTADQLRFSYLAVIEGAKFIMGDSSVQDQWKELSHEDLEPPPEHIPPPPRPPKRILEPHNGKCREFFPNHQWVKEETQEDKDCPIKEEKGSPLNAAPYGIESMSQDTEVRSRVVGGSLRGAQAASPAKGEPSLPEKDED
HALSYWKPFLVNMCVATVLTAGAYLCYRFLFNSNT

> <PDB ID(s) of Target Chain>
1BZJ,1G7G,1GFY,1JF7,1KAK,1KAV,1LQF,1NL9,1NNY,1NO6,1NZ7,1OEM,1OEO,1OES,1OET,1OEU,1OEV,1ONY,1ONZ,1PH0,1PXH,1PYN,1Q1M,1Q6J,1Q6M,1Q6N,1Q6P,1Q6S,1Q6T,1QXK,1SUG,1T48,1T49,1T4J,1WAX,1XBO,2AZR,2B07,2BGD,2BGE,
2CM2,2CM3,2CM7,2CM8,2CMA,2CMB,2CMC,2CNE,2CNF,2CNG,2CNH,2CNI,2F6T,2F6V,2F6W,2F6Y,2F6Z,2F70,2F71,2FJN,2H4G,2H4K,2HB1,2HNP,2HNQ,2QBP,2QBQ,2QBR,2QBS,2VEU,2VEV,2VEW,2VEX,2VEY,2ZMM,2ZN7,3A5J,3CWE,3D9C,3EAX,
3EB1,3EU0,3I7Z,3I80,3SME,4BJO,4I8N,4QBW,4Y14,5K9V,5K9W,5KA0,5KA1,5T19,6B90,6NTP,6W30,7KEY,7KLX,7LFO,7MN9,7MNA,8DU7,8G65,8G67,8G68,8G69,8G6A,8SKL

> <UniProt (SwissProt) Recommended Name of Target Chain>
Tyrosine-protein phosphatase non-receptor type 1

> <UniProt (SwissProt) Entry Name of Target Chain>
PTN1_HUMAN

> <UniProt (SwissProt) Primary ID of Target Chain>
P18031

> <UniProt (SwissProt) Secondary ID(s) of Target Chain>
Q5TGD8 Q9BQV9 Q9NQQ4

$$$$
Molecule
  SciTegic10242319433D

 57 61  0  0  0  0            999 V2000
   26.5571  -24.8190   -0.1022 C   0  0
   26.4205  -26.2608   -0.2714 C   0  0
   27.4823  -27.0534   -0.1433 C   0  0
   28.8134  -26.4880    0.1496 C   0  0
   28.9247  -25.1775    0.3104 C   0  0
   27.7565  -24.3310    0.1932 C   0  0
   25.3088  -23.9347   -0.3492 C   0  0
   30.0888  -27.3375    0.1592 C   0  0  2  0  0  0
   25.0926  -22.4864    0.3226 C   0  0  2  0  0  0
   23.7350  -21.8941   -0.0332 N   0  0
   26.2204  -21.4420    0.1049 C   0  0
   27.4504  -21.7498   -0.0447 N   0  0
   26.0507  -20.0083    0.1189 N   0  0
   27.3481  -19.5297   -0.0300 C   0  0
   28.1891  -20.6121   -0.1336 C   0  0
   29.5029  -20.5134   -0.2669 C   0  0
   30.0741  -19.1585   -0.3168 C   0  0
   29.2644  -18.0927   -0.2219 C   0  0
   27.7951  -18.2784   -0.0643 C   0  0
   30.0821  -29.0136    0.9324 S   0  0
   31.7730  -28.9159    0.4748 N   0  0
   32.3201  -27.6384    0.3678 C   0  0
   31.3539  -26.5613    0.5212 C   0  0
   30.4151  -30.3788    0.3623 O   0  0
   28.8449  -29.3067    0.1205 O   0  0
   33.5085  -27.4334    0.0900 O   0  0
   22.3090  -22.5658    0.8461 S   0  0
   20.7253  -23.2757    0.3818 C   0  0
   22.7204  -23.9694    0.4713 O   0  0
   21.6501  -21.4870    0.0064 O   0  0
   19.6545  -22.5019    0.1927 C   0  0
   18.3618  -23.1079   -0.1632 C   0  0
   18.2558  -24.4291   -0.2942 C   0  0
   19.4259  -25.2803   -0.0860 C   0  0
   20.5977  -24.7348    0.2359 C   0  0
   17.2848  -22.3314   -0.3501 F   0  0
   19.3188  -26.6111   -0.2176 F   0  0
   25.4462  -26.6909   -0.5034 H   0  0
   27.3672  -28.1314   -0.2560 H   0  0
   29.8968  -24.7365    0.5312 H   0  0
   27.8646  -23.2581    0.3524 H   0  0
   24.4535  -24.5358   -0.0407 H   0  0
   25.2692  -23.7713   -1.4262 H   0  0
   30.2374  -27.5605   -0.8973 H   0  0
   25.0617  -22.6641    1.3976 H   0  0
   23.5756  -22.0516   -1.0794 H   0  0
   25.1445  -19.4484    0.2197 H   0  0
   30.1347  -21.3989   -0.3368 H   0  0
   31.1494  -19.0211   -0.4303 H   0  0
   29.6835  -17.0873   -0.2603 H   0  0
   27.1181  -17.4282    0.0190 H   0  0
   32.3555  -29.7937    0.2873 H   0  0
   31.3233  -26.1797    1.5418 H   0  0
   31.5426  -25.7392   -0.1691 H   0  0
   19.7376  -21.4206    0.3020 H   0  0
   17.2967  -24.8756   -0.5565 H   0  0
   21.4674  -25.3729    0.3923 H   0  0
 17 18  2  0
  9  7  1  0
 18 19  1  0
 19 14  2  0
  8 20  1  0
  4  5  2  0
  9 10  1  0
  2  3  2  0
  9 11  1  0
 20 21  1  0
 21 22  1  0
 22 23  1  0
  8 23  1  0
 11 12  2  0
 20 24  2  0
  5  6  1  0
 20 25  2  0
  6  1  2  0
 22 26  2  0
 12 15  1  0
 10 27  1  0
 14 13  1  0
 27 28  1  0
 13 11  1  0
 27 29  2  0
  1  2  1  0
 27 30  2  0
  1  7  1  0
 28 31  2  0
 14 15  1  0
 31 32  1  0
  3  4  1  0
 32 33  2  0
 15 16  2  0
 33 34  1  0
  4  8  1  0
 34 35  2  0
 35 28  1  0
 16 17  1  0
 32 36  1  0
 34 37  1  0
  2 38  1  0
  3 39  1  0
  5 40  1  0
  6 41  1  0
  7 42  1  0
  7 43  1  0
  8 44  1  0
  9 45  1  0
 10 46  1  0
 13 47  1  0
 16 48  1  0
 17 49  1  0
 18 50  1  0
 19 51  1  0
 21 52  1  0
 23 53  1  0
 23 54  1  0
 31 55  1  0
 33 56  1  0
 35 57  1  0
M  END
> <Name>
Molecule

> <Clean Energy>
233.512

> <From>
www.bindingDB.org

> <BindingDB Reactant_set_id>
50350957

> <Ligand InChI>
InChI=1S/C24H20F2N4O5S2/c25-16-10-17(26)12-18(11-16)36(32,33)29-21(24-27-19-3-1-2-4-20(19)28-24)9-14-5-7-15(8-6-14)22-13-23(31)30-37(22,34)35/h1-8,10-12,21-22,29H,9,13H2,(H,27,28)(H,30,31)

> <Ligand InChI Key>
TZSWCNIVVBIBKO-UHFFFAOYSA-N

> <BindingDB MonomerID>
50189679

> <BindingDB Ligand Name>
CHEMBL210324::N-{1-(1H-benzoimidazol-2-yl)-2-[4-(1,1,3-trioxo-1lambda*6*-isothiazolidin-5-yl)-phenyl]-ethyl}-3,5-difluoro-benzenesulfonamide

> <Target Name>
Tyrosine-protein phosphatase non-receptor type 1

> <Target Source Organism According to Curator or DataSource>
Homo sapiens

> <IC50 (nM)>
72

> <Curation/DataSource>
ChEMBL

> <Article DOI>
10.1021/jm0600904

> <BindingDB Entry DOI>
10.7270/Q2JQ10M8

> <PMID>
16789735

> <Authors>
Combs, AP; Zhu, W; Crawley, ML; Glass, B; Polam, P; Sparks, RB; Modi, D; Takvorian, A; McLaughlin, E; Yue, EW; Wasserman, Z; Bower, M; Wei, M; Rupar, M; Ala, PJ; Reid, BM; Ellis, D; Gonneville, L; Emm
, T; Taylor, N; Yeleswaram, S; Li, Y; Wynn, R; Burn, TC; Hollis, G; Liu, PC; Metcalf, B

> <Institution>
Incyte Corporation

> <Link to Ligand in BindingDB>
http://www.bindingdb.org/bind/chemsearch/marvin/MolStructure.jsp?monomerid=50189679

> <Link to Ligand-Target Pair in BindingDB>
http://www.bindingdb.org/jsp/dbsearch/PrimarySearch_ki.jsp?energyterm=kJ/mole&tag=pol&polymerid=2622&target=Tyrosine-protein+phosphatase+non-receptor+type+1&column=ki&startPg=0&Increment=50&submit=Sea
rch
http://www.bindingdb.org/jsp/dbsearch/PrimarySearch_ki.jsp?energyterm=kJ/mole&tag=r21&monomerid=50189679&enzyme=Tyrosine-protein+phosphatase+non-receptor+type+1&column=ki&startPg=0&Increment=50&submit
=Search

> <PubChem CID of Ligand>
44412899

> <PubChem SID of Ligand>
104073200

> <ChEMBL ID of Ligand>
CHEMBL210324

> <ZINC ID of Ligand>
ZINC36088639

> <Number of Protein Chains in Target (bigger than 1 implies a multichain complex)>
1

> <BindingDB Target Chain Sequence>
MEMEKEFEQIDKSGSWAAIYQDIRHEASDFPCRVAKLPKNKNRNRYRDVSPFDHSRIKLHQEDNDYINASLIKMEEAQRSYILTQGPLPNTCGHFWEMVWEQKSRGVVMLNRVMEKGSLKCAQYWPQKEEKEMIFEDTNLKLTLISEDIKSYYTVRQLELENLTTQETREILHFHYTTWPDFGVPESPASFLNFLFKVRE
SGSLSPEHGPVVVHCSAGIGRSGTFCLADTCLLLMDKRKDPSSVDIKKVLLEMRKFRMGLIQTADQLRFSYLAVIEGAKFIMGDSSVQDQWKELSHEDLEPPPEHIPPPPRPPKRILEPHNGKCREFFPNHQWVKEETQEDKDCPIKEEKGSPLNAAPYGIESMSQDTEVRSRVVGGSLRGAQAASPAKGEPSLPEKDED
HALSYWKPFLVNMCVATVLTAGAYLCYRFLFNSNT

> <PDB ID(s) of Target Chain>
1BZJ,1G7G,1GFY,1JF7,1KAK,1KAV,1LQF,1NL9,1NNY,1NO6,1NZ7,1OEM,1OEO,1OES,1OET,1OEU,1OEV,1ONY,1ONZ,1PH0,1PXH,1PYN,1Q1M,1Q6J,1Q6M,1Q6N,1Q6P,1Q6S,1Q6T,1QXK,1SUG,1T48,1T49,1T4J,1WAX,1XBO,2AZR,2B07,2BGD,2BGE,
2CM2,2CM3,2CM7,2CM8,2CMA,2CMB,2CMC,2CNE,2CNF,2CNG,2CNH,2CNI,2F6T,2F6V,2F6W,2F6Y,2F6Z,2F70,2F71,2FJN,2H4G,2H4K,2HB1,2HNP,2HNQ,2QBP,2QBQ,2QBR,2QBS,2VEU,2VEV,2VEW,2VEX,2VEY,2ZMM,2ZN7,3A5J,3CWE,3D9C,3EAX,
3EB1,3EU0,3I7Z,3I80,3SME,4BJO,4I8N,4QBW,4Y14,5K9V,5K9W,5KA0,5KA1,5T19,6B90,6NTP,6W30,7KEY,7KLX,7LFO,7MN9,7MNA,8DU7,8G65,8G67,8G68,8G69,8G6A,8SKL

> <UniProt (SwissProt) Recommended Name of Target Chain>
Tyrosine-protein phosphatase non-receptor type 1

> <UniProt (SwissProt) Entry Name of Target Chain>
PTN1_HUMAN

> <UniProt (SwissProt) Primary ID of Target Chain>
P18031

> <UniProt (SwissProt) Secondary ID(s) of Target Chain>
Q5TGD8 Q9BQV9 Q9NQQ4

$$$$
Molecule
  SciTegic10242319433D

 63 66  0  0  0  0            999 V2000
    0.9031   -1.7990    0.0213 S   0  0
    9.5375   -5.7188    0.4809 P   0  0
    8.9187   -4.6707   -0.6516 C   0  0
    2.2578   -2.9124    0.4990 N   0  0
   -4.2536   -9.1112   -0.0719 N   0  0
   -2.9471   -7.2828    0.0797 C   0  0
   -3.0970   -8.7137   -0.1123 N   0  0
   -5.2279   -7.8430    0.1893 S   0  0
    1.0758   -0.0245    0.0918 C   0  0
   -4.1168   -6.6339    0.2691 C   0  0
    0.5534   -2.1138   -1.4206 O   0  0
   -0.3245   -2.0166    0.8821 O   0  0
    7.5299   -4.1222   -0.3412 C   0  0
   -1.6885   -6.5677    0.0644 C   0  0
    9.6938   -5.0670    1.6863 O   0  0
    3.5375   -2.3173   -0.0555 C   0  0
    2.0553   -4.3199   -0.1265 C   0  0
    2.1773    6.2230    0.0054 C   0  0
    8.8125   -5.3896   -1.8236 F   0  0
    9.7825   -3.6147   -0.8568 F   0  0
    8.6100   -6.9454    0.6610 O   0  0
   10.9240   -6.2078   -0.0227 O   0  0
    1.0534    6.7368   -0.0361 O   0  0
   -0.0686    0.6558    0.0543 C   0  0
    2.3495    0.7070    0.1205 C   0  0
    7.2890   -2.8492   -0.6345 C   0  0
    6.4308   -4.9656    0.1737 C   0  0
   -0.5265   -7.2134   -0.1769 C   0  0
   -1.6722   -5.1610    0.2947 C   0  0
    1.0093    4.1667    0.0460 O   0  0
    4.9367   -3.0240   -0.0404 C   0  0
    0.7306   -5.1241    0.0021 C   0  0
    2.3134    4.7351    0.0562 C   0  0
    1.0574    2.7743    0.0688 C   0  0
    3.3108    7.0251    0.0025 O   0  0
    5.2029   -4.4492    0.3243 C   0  0
   -0.5371   -4.4887    0.2712 C   0  0
    0.7357   -6.4387   -0.2193 C   0  0
    5.9547   -2.2874   -0.4807 C   0  0
   -0.0843    2.1003    0.0497 C   0  0
    2.3416    2.0420    0.1074 C   0  0
   -4.2831   -5.5694    0.4344 H   0  0
    3.3295   -2.1065   -1.1045 H   0  0
    3.6794   -1.3801    0.4828 H   0  0
    2.2309   -4.2008   -1.1956 H   0  0
    2.8327   -4.9527    0.3017 H   0  0
    7.6624   -6.6244    0.9798 H   0  0
   10.8094   -6.6973   -0.9445 H   0  0
   -1.0125    0.1116    0.0265 H   0  0
    3.2940    0.1638    0.1523 H   0  0
    8.1007   -2.2171   -0.9948 H   0  0
    6.6187   -6.0080    0.4310 H   0  0
   -0.5177   -8.2913   -0.3385 H   0  0
   -2.6066   -4.6356    0.4922 H   0  0
    2.8740    4.3865   -0.8112 H   0  0
    2.8353    4.4437    0.9677 H   0  0
    3.8652    6.8515    0.8771 H   0  0
    4.3962   -5.0703    0.7139 H   0  0
   -0.5575   -3.4157    0.4617 H   0  0
    1.6756   -6.9475   -0.4332 H   0  0
    5.7853   -1.2403   -0.7317 H   0  0
   -1.0336    2.6355    0.0305 H   0  0
    3.2822    2.5925    0.1251 H   0  0
  2  3  1  0
  3 13  1  0
  4  1  1  0
  5  7  2  0
  6 14  1  0
  7  6  1  0
  8 10  1  0
  9  1  1  0
 10  6  2  0
 11  1  2  0
 12  1  2  0
 13 26  2  0
 14 28  2  0
 15  2  2  0
 16  4  1  0
 17  4  1  0
 18 33  1  0
 19  3  1  0
 20  3  1  0
 21  2  1  0
 22  2  1  0
 23 18  2  0
 24  9  2  0
 25  9  1  0
 26 39  1  0
 27 36  2  0
 28 38  1  0
 29 37  2  0
 30 34  1  0
 31 16  1  0
 32 17  1  0
 33 30  1  0
 34 41  1  0
 35 18  1  0
 36 31  1  0
 37 32  1  0
 38 32  2  0
 39 31  2  0
 40 24  1  0
 41 25  2  0
 40 34  2  0
 29 14  1  0
 13 27  1  0
  8  5  1  0
 10 42  1  0
 16 43  1  0
 16 44  1  0
 17 45  1  0
 17 46  1  0
 21 47  1  0
 22 48  1  0
 24 49  1  0
 25 50  1  0
 26 51  1  0
 27 52  1  0
 28 53  1  0
 29 54  1  0
 33 55  1  0
 33 56  1  0
 35 57  1  0
 36 58  1  0
 37 59  1  0
 38 60  1  0
 39 61  1  0
 40 62  1  0
 41 63  1  0
M  END
> <Name>
Molecule

> <Clean Energy>
65.0467

> <From>
www.bindingDB.org

> <BindingDB Reactant_set_id>
50867309

> <Ligand InChI>
InChI=1S/C25H22F2N3O8PS2/c26-25(27,39(33,34)35)20-7-3-18(4-8-20)14-30(13-17-1-5-19(6-2-17)23-16-40-29-28-23)41(36,37)22-11-9-21(10-12-22)38-15-24(31)32/h1-12,16H,13-15H2,(H,31,32)(H2,33,34,35)

> <Ligand InChI Key>
FZKPYRVHIKXMTR-UHFFFAOYSA-N

> <BindingDB MonomerID>
50171100

> <BindingDB Ligand Name>
CHEMBL198882::{4-[[4-(Difluoro-phosphono-methyl)-benzyl]-(4-[1,2,3]thiadiazol-4-yl-benzyl)-sulfamoyl]-phenoxy}-acetic acid

> <Target Name>
Tyrosine-protein phosphatase non-receptor type 1

> <Target Source Organism According to Curator or DataSource>
Homo sapiens

> <IC50 (nM)>
74

> <Curation/DataSource>
ChEMBL

> <Article DOI>
10.1016/j.bmcl.2008.03.007

> <BindingDB Entry DOI>
10.7270/Q23J3DTX

> <PMID>
18372175

> <Authors>
Holmes, CP; Li, X; Pan, Y; Xu, C; Bhandari, A; Moody, CM; Miguel, JA; Ferla, SW; De Francisco, MN; Frederick, BT; Zhou, S; Macher, N; Jang, L; Irvine, JD; Grove, JR

> <Institution>
Affymax, Inc.

> <Link to Ligand in BindingDB>
http://www.bindingdb.org/bind/chemsearch/marvin/MolStructure.jsp?monomerid=50171100

> <Link to Ligand-Target Pair in BindingDB>
http://www.bindingdb.org/jsp/dbsearch/PrimarySearch_ki.jsp?energyterm=kJ/mole&tag=pol&polymerid=2622&target=Tyrosine-protein+phosphatase+non-receptor+type+1&column=ki&startPg=0&Increment=50&submit=Sea
rch
http://www.bindingdb.org/jsp/dbsearch/PrimarySearch_ki.jsp?energyterm=kJ/mole&tag=r21&monomerid=50171100&enzyme=Tyrosine-protein+phosphatase+non-receptor+type+1&column=ki&startPg=0&Increment=50&submit
=Search

> <PubChem CID of Ligand>
44404368

> <PubChem SID of Ligand>
104057397

> <ChEMBL ID of Ligand>
CHEMBL198882

> <ZINC ID of Ligand>
ZINC28527810

> <Number of Protein Chains in Target (bigger than 1 implies a multichain complex)>
1

> <BindingDB Target Chain Sequence>
MEMEKEFEQIDKSGSWAAIYQDIRHEASDFPCRVAKLPKNKNRNRYRDVSPFDHSRIKLHQEDNDYINASLIKMEEAQRSYILTQGPLPNTCGHFWEMVWEQKSRGVVMLNRVMEKGSLKCAQYWPQKEEKEMIFEDTNLKLTLISEDIKSYYTVRQLELENLTTQETREILHFHYTTWPDFGVPESPASFLNFLFKVRE
SGSLSPEHGPVVVHCSAGIGRSGTFCLADTCLLLMDKRKDPSSVDIKKVLLEMRKFRMGLIQTADQLRFSYLAVIEGAKFIMGDSSVQDQWKELSHEDLEPPPEHIPPPPRPPKRILEPHNGKCREFFPNHQWVKEETQEDKDCPIKEEKGSPLNAAPYGIESMSQDTEVRSRVVGGSLRGAQAASPAKGEPSLPEKDED
HALSYWKPFLVNMCVATVLTAGAYLCYRFLFNSNT

> <PDB ID(s) of Target Chain>
1BZJ,1G7G,1GFY,1JF7,1KAK,1KAV,1LQF,1NL9,1NNY,1NO6,1NZ7,1OEM,1OEO,1OES,1OET,1OEU,1OEV,1ONY,1ONZ,1PH0,1PXH,1PYN,1Q1M,1Q6J,1Q6M,1Q6N,1Q6P,1Q6S,1Q6T,1QXK,1SUG,1T48,1T49,1T4J,1WAX,1XBO,2AZR,2B07,2BGD,2BGE,
2CM2,2CM3,2CM7,2CM8,2CMA,2CMB,2CMC,2CNE,2CNF,2CNG,2CNH,2CNI,2F6T,2F6V,2F6W,2F6Y,2F6Z,2F70,2F71,2FJN,2H4G,2H4K,2HB1,2HNP,2HNQ,2QBP,2QBQ,2QBR,2QBS,2VEU,2VEV,2VEW,2VEX,2VEY,2ZMM,2ZN7,3A5J,3CWE,3D9C,3EAX,
3EB1,3EU0,3I7Z,3I80,3SME,4BJO,4I8N,4QBW,4Y14,5K9V,5K9W,5KA0,5KA1,5T19,6B90,6NTP,6W30,7KEY,7KLX,7LFO,7MN9,7MNA,8DU7,8G65,8G67,8G68,8G69,8G6A,8SKL

> <UniProt (SwissProt) Recommended Name of Target Chain>
Tyrosine-protein phosphatase non-receptor type 1

> <UniProt (SwissProt) Entry Name of Target Chain>
PTN1_HUMAN

> <UniProt (SwissProt) Primary ID of Target Chain>
P18031

> <UniProt (SwissProt) Secondary ID(s) of Target Chain>
Q5TGD8 Q9BQV9 Q9NQQ4

$$$$
Molecule
  SciTegic10242319433D

 60 65  0  0  0  0            999 V2000
    6.9370   -5.8863   -0.0147 C   0  0
    5.5491   -5.7744   -0.0199 C   0  0
    4.8137   -7.2038   -0.0066 C   0  0
    5.5617   -8.3199    0.0013 C   0  0
    7.5943   -7.1798   -0.0160 C   0  0
    8.1815   -4.9466    0.0206 C   0  0
    4.6187   -9.6940    0.0151 S   0  0
    3.4691   -1.8322    0.0006 C   0  0
    9.2619   -5.7237    0.0053 C   0  0
    8.9482   -7.0505   -0.0285 O   0  0
    4.7718   -4.3998   -0.0313 C   0  0
    2.6993   -0.5961    0.1224 O   0  0
    3.2725   -7.6504   -0.0095 C   0  0
    6.9721   -8.3372   -0.0090 C   0  0
    3.1394   -8.9766    0.0040 C   0  0
    2.8187   -2.9488    0.3335 C   0  0
    4.9008   -2.0076   -0.4534 C   0  0
    3.2834    0.7143   -0.1247 C   0  0  1  0  0  0
    2.1069    1.6726   -0.0312 C   0  0
    5.4254   -3.2198   -0.4456 C   0  0
    3.4981   -4.2679    0.3197 C   0  0
    4.4702    1.0852    0.8697 C   0  0
    2.2311    2.8081    0.4357 O   0  0
    6.1634   -0.5444   -1.2091 I   0  0
    0.8435   -2.8301    0.9120 I   0  0
    0.8341    1.1975   -0.3212 O   0  0
    5.3118    2.3363    0.5004 C   0  0
    8.3617   -3.4474    0.0977 C   0  0
   10.6705   -5.1990    0.0411 C   0  0
    2.0582   -6.8427   -0.0317 C   0  0
    1.8601   -9.6586    0.0047 C   0  0
    6.5983    2.3445    0.8555 C   0  0
    4.7881    3.4741   -0.2751 C   0  0
    0.8623   -7.4412   -0.0306 C   0  0
    0.7550   -8.9167   -0.0106 C   0  0
    5.5779    4.4964   -0.6005 C   0  0
    7.4704    3.4669    0.4917 C   0  0
    6.9834    4.4927   -0.2020 C   0  0
    7.5256   -9.2762   -0.0112 H   0  0
    3.6670    0.7356   -1.1447 H   0  0
    6.4550   -3.3173   -0.7898 H   0  0
    2.9344   -5.1556    0.6065 H   0  0
    4.0365    1.2559    1.8550 H   0  0
    5.1462    0.2313    0.9127 H   0  0
    0.8092    0.8422   -1.3089 H   0  0
    9.4251   -3.2083    0.0981 H   0  0
    7.9052   -3.0727    1.0138 H   0  0
    7.8848   -2.9789   -0.7633 H   0  0
   11.3705   -6.0341    0.0192 H   0  0
   10.8212   -4.6232    0.9543 H   0  0
   10.8424   -4.5587   -0.8242 H   0  0
    2.1252   -5.7549   -0.0492 H   0  0
    1.8048  -10.7472    0.0174 H   0  0
    7.0059    1.5075    1.4224 H   0  0
    3.7434    3.4796   -0.5860 H   0  0
   -0.0436   -6.8351   -0.0445 H   0  0
   -0.2249   -9.3942   -0.0085 H   0  0
    5.1748    5.3371   -1.1651 H   0  0
    8.5187    3.4605    0.7902 H   0  0
    7.6307    5.3271   -0.4719 H   0  0
  2  1  2  0
  3  2  1  0
  4 14  1  0
  5  1  1  0
  6  1  1  0
  7  4  1  0
  8 16  2  0
  9  6  2  0
 10  5  1  0
 11  2  1  0
 12  8  1  0
 13  3  1  0
 14  5  2  0
 15 13  2  0
 16 21  1  0
 17 20  2  0
 18 12  1  0
 18 19  1  0
 20 11  1  0
 21 11  2  0
 18 22  1  0
 23 19  2  0
 24 17  1  0
 25 16  1  0
 26 19  1  0
 27 22  1  0
 28  6  1  0
 29  9  1  0
 30 13  1  0
 31 15  1  0
 32 27  2  0
 33 27  1  0
 34 30  2  0
 35 34  1  0
 36 33  2  0
 37 32  1  0
 38 36  1  0
 10  9  1  0
  3  4  2  0
 17  8  1  0
 15  7  1  0
 35 31  2  0
 37 38  2  0
 14 39  1  0
 18 40  1  0
 20 41  1  0
 21 42  1  0
 22 43  1  0
 22 44  1  0
 26 45  1  0
 28 46  1  0
 28 47  1  0
 28 48  1  0
 29 49  1  0
 29 50  1  0
 29 51  1  0
 30 52  1  0
 31 53  1  0
 32 54  1  0
 33 55  1  0
 34 56  1  0
 35 57  1  0
 36 58  1  0
 37 59  1  0
 38 60  1  0
M  END
> <Name>
Molecule

> <Clean Energy>
105.686

> <From>
www.bindingDB.org

> <BindingDB Reactant_set_id>
50160960

> <Ligand InChI>
InChI=1S/C31H22I2O4S/c1-16-17(2)36-23-15-26-29(20-10-6-7-11-25(20)38-26)28(27(16)23)19-13-21(32)30(22(33)14-19)37-24(31(34)35)12-18-8-4-3-5-9-18/h3-11,13-15,24H,12H2,1-2H3,(H,34,35)/t24-/m1/s1

> <Ligand InChI Key>
HPFPSGLWBHMGHX-XMMPIXPASA-N

> <BindingDB MonomerID>
50090172

> <BindingDB Ligand Name>
(R)-2-[4-(2,3-Dimethyl-1-oxa-9-thia-cyclopenta[b]fluoren-4-yl)-2,6-diiodo-phenoxy]-3-phenyl-propionic acid::CHEMBL39626

> <Target Name>
Tyrosine-protein phosphatase non-receptor type 1

> <Target Source Organism According to Curator or DataSource>
Homo sapiens

> <IC50 (nM)>
74

> <Curation/DataSource>
ChEMBL

> <Article DOI>
10.1016/s0960-894x(00)00278-x

> <BindingDB Entry DOI>
10.7270/Q2WQ031M

> <PMID>
10915044

> <Authors>
Wrobel, J; Li, Z; Sredy, J; Sawicki, DR; Seestaller, L; Sullivan, D

> <Institution>
Wyeth-Ayerst Research

> <Link to Ligand in BindingDB>
http://www.bindingdb.org/bind/chemsearch/marvin/MolStructure.jsp?monomerid=50090172

> <Link to Ligand-Target Pair in BindingDB>
http://www.bindingdb.org/jsp/dbsearch/PrimarySearch_ki.jsp?energyterm=kJ/mole&tag=pol&polymerid=2622&target=Tyrosine-protein+phosphatase+non-receptor+type+1&column=ki&startPg=0&Increment=50&submit=Sea
rch
http://www.bindingdb.org/jsp/dbsearch/PrimarySearch_ki.jsp?energyterm=kJ/mole&tag=r21&monomerid=50090172&enzyme=Tyrosine-protein+phosphatase+non-receptor+type+1&column=ki&startPg=0&Increment=50&submit
=Search

> <PubChem CID of Ligand>
9896840

> <PubChem SID of Ligand>
103988673

> <ChEMBL ID of Ligand>
CHEMBL39626

> <ZINC ID of Ligand>
ZINC95613365

> <Number of Protein Chains in Target (bigger than 1 implies a multichain complex)>
1

> <BindingDB Target Chain Sequence>
MEMEKEFEQIDKSGSWAAIYQDIRHEASDFPCRVAKLPKNKNRNRYRDVSPFDHSRIKLHQEDNDYINASLIKMEEAQRSYILTQGPLPNTCGHFWEMVWEQKSRGVVMLNRVMEKGSLKCAQYWPQKEEKEMIFEDTNLKLTLISEDIKSYYTVRQLELENLTTQETREILHFHYTTWPDFGVPESPASFLNFLFKVRE
SGSLSPEHGPVVVHCSAGIGRSGTFCLADTCLLLMDKRKDPSSVDIKKVLLEMRKFRMGLIQTADQLRFSYLAVIEGAKFIMGDSSVQDQWKELSHEDLEPPPEHIPPPPRPPKRILEPHNGKCREFFPNHQWVKEETQEDKDCPIKEEKGSPLNAAPYGIESMSQDTEVRSRVVGGSLRGAQAASPAKGEPSLPEKDED
HALSYWKPFLVNMCVATVLTAGAYLCYRFLFNSNT

> <PDB ID(s) of Target Chain>
1BZJ,1G7G,1GFY,1JF7,1KAK,1KAV,1LQF,1NL9,1NNY,1NO6,1NZ7,1OEM,1OEO,1OES,1OET,1OEU,1OEV,1ONY,1ONZ,1PH0,1PXH,1PYN,1Q1M,1Q6J,1Q6M,1Q6N,1Q6P,1Q6S,1Q6T,1QXK,1SUG,1T48,1T49,1T4J,1WAX,1XBO,2AZR,2B07,2BGD,2BGE,
2CM2,2CM3,2CM7,2CM8,2CMA,2CMB,2CMC,2CNE,2CNF,2CNG,2CNH,2CNI,2F6T,2F6V,2F6W,2F6Y,2F6Z,2F70,2F71,2FJN,2H4G,2H4K,2HB1,2HNP,2HNQ,2QBP,2QBQ,2QBR,2QBS,2VEU,2VEV,2VEW,2VEX,2VEY,2ZMM,2ZN7,3A5J,3CWE,3D9C,3EAX,
3EB1,3EU0,3I7Z,3I80,3SME,4BJO,4I8N,4QBW,4Y14,5K9V,5K9W,5KA0,5KA1,5T19,6B90,6NTP,6W30,7KEY,7KLX,7LFO,7MN9,7MNA,8DU7,8G65,8G67,8G68,8G69,8G6A,8SKL

> <UniProt (SwissProt) Recommended Name of Target Chain>
Tyrosine-protein phosphatase non-receptor type 1

> <UniProt (SwissProt) Entry Name of Target Chain>
PTN1_HUMAN

> <UniProt (SwissProt) Primary ID of Target Chain>
P18031

> <UniProt (SwissProt) Secondary ID(s) of Target Chain>
Q5TGD8 Q9BQV9 Q9NQQ4

$$$$
Molecule
  SciTegic10242319433D

 74 79  0  0  0  0            999 V2000
    0.5765   -6.2811    0.0300 C   0  0
    1.1793   -5.0598   -0.0020 C   0  0
   -0.8233   -6.1311    0.0371 O   0  0
    9.5152   -2.5866   -0.0665 C   0  0
   10.9928   -2.2972    0.0549 O   0  0
    0.0712   -4.0884   -0.0134 C   0  0
   -1.1080   -4.8170    0.0123 C   0  0
    6.8452   -3.5665   -0.1094 C   0  0
   11.6848   -0.9942   -0.1328 C   0  0  2  0  0  0
    9.1828   -4.0134    0.2396 C   0  0
    8.4677   -1.7703   -0.4094 C   0  0
   13.1812   -1.2892   -0.0397 C   0  0
    7.9284   -4.4692    0.2088 C   0  0
    7.1129   -2.3060   -0.4036 C   0  0
    2.6982   -4.7080   -0.0259 C   0  0
    1.2720   -7.6544    0.0435 C   0  0
    5.4405   -3.9914   -0.0923 C   0  0
   11.2559    0.1639    0.8644 C   0  0
   13.9590   -0.4861    0.4874 O   0  0
    3.6618   -5.6301    0.1108 C   0  0
    3.1204   -3.3118   -0.2106 C   0  0
    4.4064   -2.9787   -0.2503 C   0  0
    5.0918   -5.2620    0.0877 C   0  0
   13.6614   -2.5253   -0.4538 O   0  0
    0.3658   -8.8844    0.0250 C   0  0
   11.6572    1.5960    0.4321 C   0  0
    0.0743   -2.7577   -0.0340 C   0  0
   -2.3092   -4.2521    0.0143 C   0  0
    8.5284   -0.3198   -0.8080 C   0  0
   10.2963   -4.9673    0.5665 C   0  0
    0.9362  -10.0884    0.0204 C   0  0
   -1.1011   -8.7887    0.0108 C   0  0
   12.7024    1.8542   -0.3574 C   0  0
   10.8066    2.7129    0.8676 C   0  0
   -1.2337   -2.0666   -0.0339 C   0  0
   -2.3684   -2.7788   -0.0117 C   0  0
   -1.8502   -9.8889   -0.0055 C   0  0
   13.0142    3.2286   -0.7603 C   0  0
   11.0759    3.9603    0.4838 C   0  0
    0.1131  -11.3000    0.0022 C   0  0
   -1.2147  -11.2048   -0.0099 C   0  0
   12.2356    4.2323   -0.3634 C   0  0
   11.4772   -0.6520   -1.1466 H   0  0
    7.7219   -5.5178    0.4228 H   0  0
    6.2863   -1.6403   -0.6519 H   0  0
    1.9166   -7.7063   -0.8339 H   0  0
    1.8809   -7.7068    0.9461 H   0  0
   10.1710    0.1351    0.9660 H   0  0
   11.7173   -0.0371    1.8312 H   0  0
    3.3833   -6.6757    0.2420 H   0  0
    2.3637   -2.5345   -0.3170 H   0  0
    4.6897   -1.9373   -0.4027 H   0  0
    5.8570   -6.0273    0.2175 H   0  0
   13.2126   -3.2845    0.1161 H   0  0
    1.0085   -2.1963   -0.0504 H   0  0
   -3.2175   -4.8544    0.0344 H   0  0
    7.5221    0.0418   -1.0194 H   0  0
    9.1469   -0.2129   -1.6992 H   0  0
    8.9601    0.2633    0.0055 H   0  0
   11.2477   -4.4358    0.5488 H   0  0
   10.3156   -5.7703   -0.1704 H   0  0
   10.1347   -5.3890    1.5586 H   0  0
    2.0229  -10.1725    0.0303 H   0  0
   -1.5791   -7.8091    0.0136 H   0  0
   13.3304    1.0344   -0.7061 H   0  0
    9.9478    2.5191    1.5103 H   0  0
   -1.2744   -0.9775   -0.0519 H   0  0
   -3.3326   -2.2705   -0.0128 H   0  0
   -2.9371   -9.8084   -0.0156 H   0  0
   13.8844    3.4287   -1.3853 H   0  0
   10.4306    4.7790    0.8021 H   0  0
    0.5885  -12.2809   -0.0014 H   0  0
   -1.8266  -12.1067   -0.0230 H   0  0
   12.4619    5.2537   -0.6692 H   0  0
  2  1  2  0
  3  1  1  0
  4 11  2  0
  5  4  1  0
  6  2  1  0
  7  3  1  0
  8 17  1  0
  5  9  1  0
 10 13  2  0
 11 14  1  0
 12  9  1  0
 13  8  1  0
 14  8  2  0
 15  2  1  0
 16  1  1  0
 17 22  1  0
 18  9  1  0
 19 12  2  0
 20 15  2  0
 21 15  1  0
 22 21  2  0
 23 20  1  0
 24 12  1  0
 25 16  1  0
 26 18  1  0
 27  6  2  0
 28  7  2  0
 29 11  1  0
 30 10  1  0
 31 25  2  0
 32 25  1  0
 33 26  2  0
 34 26  1  0
 35 27  1  0
 36 28  1  0
 37 32  2  0
 38 33  1  0
 39 34  2  0
 40 31  1  0
 41 37  1  0
 42 39  1  0
  6  7  1  0
 35 36  2  0
 23 17  2  0
 40 41  2  0
 10  4  1  0
 38 42  2  0
  9 43  1  0
 13 44  1  0
 14 45  1  0
 16 46  1  0
 16 47  1  0
 18 48  1  0
 18 49  1  0
 20 50  1  0
 21 51  1  0
 22 52  1  0
 23 53  1  0
 24 54  1  0
 27 55  1  0
 28 56  1  0
 29 57  1  0
 29 58  1  0
 29 59  1  0
 30 60  1  0
 30 61  1  0
 30 62  1  0
 31 63  1  0
 32 64  1  0
 33 65  1  0
 34 66  1  0
 35 67  1  0
 36 68  1  0
 37 69  1  0
 38 70  1  0
 39 71  1  0
 40 72  1  0
 41 73  1  0
 42 74  1  0
M  END
> <Name>
Molecule

> <Clean Energy>
57.066

> <From>
www.bindingDB.org

> <BindingDB Reactant_set_id>
50154594

> <Ligand InChI>
InChI=1S/C38H32O4/c1-25-21-31(22-26(2)37(25)42-35(38(39)40)24-28-13-7-4-8-14-28)29-17-19-30(20-18-29)36-32-15-9-10-16-33(32)41-34(36)23-27-11-5-3-6-12-27/h3-22,35H,23-24H2,1-2H3,(H,39,40)

> <Ligand InChI Key>
IZOXZUFSJZRDLR-UHFFFAOYSA-N

> <BindingDB MonomerID>
50086914

> <BindingDB Ligand Name>
2-[4'-(2-Benzyl-benzofuran-3-yl)-3,5-dimethyl-biphenyl-4-yloxy]-3-phenyl-propionic acid::CHEMBL278862

> <Target Name>
Tyrosine-protein phosphatase non-receptor type 1

> <Target Source Organism According to Curator or DataSource>
Homo sapiens

> <IC50 (nM)>
74

> <Curation/DataSource>
ChEMBL

> <Article DOI>
10.1021/jm990560c

> <BindingDB Entry DOI>
10.7270/Q2W958FT

> <PMID>
10753467

> <Authors>
Malamas, MS; Sredy, J; Moxham, C; Katz, A; Xu, W; McDevitt, R; Adebayo, FO; Sawicki, DR; Seestaller, L; Sullivan, D; Taylor, JR

> <Institution>
Wyeth-Ayerst Research

> <Link to Ligand in BindingDB>
http://www.bindingdb.org/bind/chemsearch/marvin/MolStructure.jsp?monomerid=50086914

> <Link to Ligand-Target Pair in BindingDB>
http://www.bindingdb.org/jsp/dbsearch/PrimarySearch_ki.jsp?energyterm=kJ/mole&tag=pol&polymerid=2622&target=Tyrosine-protein+phosphatase+non-receptor+type+1&column=ki&startPg=0&Increment=50&submit=Sea
rch
http://www.bindingdb.org/jsp/dbsearch/PrimarySearch_ki.jsp?energyterm=kJ/mole&tag=r21&monomerid=50086914&enzyme=Tyrosine-protein+phosphatase+non-receptor+type+1&column=ki&startPg=0&Increment=50&submit
=Search

> <PubChem CID of Ligand>
17874120

> <PubChem SID of Ligand>
103986025

> <ChEMBL ID of Ligand>
CHEMBL278862

> <ZINC ID of Ligand>
ZINC28757962

> <Number of Protein Chains in Target (bigger than 1 implies a multichain complex)>
1

> <BindingDB Target Chain Sequence>
MEMEKEFEQIDKSGSWAAIYQDIRHEASDFPCRVAKLPKNKNRNRYRDVSPFDHSRIKLHQEDNDYINASLIKMEEAQRSYILTQGPLPNTCGHFWEMVWEQKSRGVVMLNRVMEKGSLKCAQYWPQKEEKEMIFEDTNLKLTLISEDIKSYYTVRQLELENLTTQETREILHFHYTTWPDFGVPESPASFLNFLFKVRE
SGSLSPEHGPVVVHCSAGIGRSGTFCLADTCLLLMDKRKDPSSVDIKKVLLEMRKFRMGLIQTADQLRFSYLAVIEGAKFIMGDSSVQDQWKELSHEDLEPPPEHIPPPPRPPKRILEPHNGKCREFFPNHQWVKEETQEDKDCPIKEEKGSPLNAAPYGIESMSQDTEVRSRVVGGSLRGAQAASPAKGEPSLPEKDED
HALSYWKPFLVNMCVATVLTAGAYLCYRFLFNSNT

> <PDB ID(s) of Target Chain>
1BZJ,1G7G,1GFY,1JF7,1KAK,1KAV,1LQF,1NL9,1NNY,1NO6,1NZ7,1OEM,1OEO,1OES,1OET,1OEU,1OEV,1ONY,1ONZ,1PH0,1PXH,1PYN,1Q1M,1Q6J,1Q6M,1Q6N,1Q6P,1Q6S,1Q6T,1QXK,1SUG,1T48,1T49,1T4J,1WAX,1XBO,2AZR,2B07,2BGD,2BGE,
2CM2,2CM3,2CM7,2CM8,2CMA,2CMB,2CMC,2CNE,2CNF,2CNG,2CNH,2CNI,2F6T,2F6V,2F6W,2F6Y,2F6Z,2F70,2F71,2FJN,2H4G,2H4K,2HB1,2HNP,2HNQ,2QBP,2QBQ,2QBR,2QBS,2VEU,2VEV,2VEW,2VEX,2VEY,2ZMM,2ZN7,3A5J,3CWE,3D9C,3EAX,
3EB1,3EU0,3I7Z,3I80,3SME,4BJO,4I8N,4QBW,4Y14,5K9V,5K9W,5KA0,5KA1,5T19,6B90,6NTP,6W30,7KEY,7KLX,7LFO,7MN9,7MNA,8DU7,8G65,8G67,8G68,8G69,8G6A,8SKL

> <UniProt (SwissProt) Recommended Name of Target Chain>
Tyrosine-protein phosphatase non-receptor type 1

> <UniProt (SwissProt) Entry Name of Target Chain>
PTN1_HUMAN

> <UniProt (SwissProt) Primary ID of Target Chain>
P18031

> <UniProt (SwissProt) Secondary ID(s) of Target Chain>
Q5TGD8 Q9BQV9 Q9NQQ4

$$$$
Molecule
  SciTegic10242319433D

 73 79  0  0  0  0            999 V2000
   -4.1815   -1.6810   -0.0230 N   0  0
   -4.1875   -2.9236   -0.6221 N   0  0
   -2.5421   -8.3367   -0.3874 P   0  0
   -1.1408   -7.7438    0.3166 C   0  0
   -5.3234   -3.3814   -0.7926 N   0  0
    2.5739    3.7447    0.0390 C   0  0
   -2.8179   -0.8676    0.3069 C   0  0  1  0  0  0
   -5.6143   -1.3929    0.1725 C   0  0
    1.3356    3.4890    0.0054 N   0  0
    0.6670    4.6574    0.0053 N   0  0
    2.6988    5.1058    0.0739 N   0  0
    1.4534    5.5873    0.0428 N   0  0
    3.7820    2.7778    0.0878 C   0  0
   -6.2679   -2.4778   -0.3413 C   0  0
   -1.2971   -1.7846   -0.1659 C   0  0  1  0  0  0
    3.8148    1.3909    0.0205 C   0  0
   -1.1590   -6.2273    0.2645 C   0  0
   -2.6063   -7.9132   -1.6998 O   0  0
    2.6125    0.4484    0.0615 C   0  0
    0.2261   -1.1183   -0.0315 C   0  0
   -1.2382   -3.3902    0.0542 C   0  0
   -2.9878    0.8434    0.0373 C   0  0
   -1.1405   -8.1701    1.6263 F   0  0
   -0.0351   -8.2307   -0.3556 F   0  0
   -2.5256   -9.8850   -0.3505 O   0  0
   -3.7974   -7.8361    0.3748 O   0  0
   -2.2442   -5.4603    0.8776 C   0  0
   -0.1926   -5.5778   -0.3717 C   0  0
    1.4311    0.9050    0.2992 C   0  0
    2.7144   -1.0170   -0.2350 C   0  0
   -2.2782   -4.1280    0.7850 C   0  0
   -0.2451   -4.1151   -0.4803 C   0  0
    1.5856   -1.7646   -0.2783 C   0  0
    0.2928    0.1336    0.2584 C   0  0
   -6.3026   -0.3796    0.7004 C   0  0
    5.0629    3.4972    0.0473 C   0  0
    5.1250    0.7286    0.0254 C   0  0
   -7.5945   -2.5938   -0.3820 C   0  0
   -1.9742    1.6951   -0.0473 C   0  0
   -4.2756    1.5151   -0.0668 C   0  0
   -7.7805   -0.4230    0.6801 C   0  0
    6.2590    1.4210    0.0063 C   0  0
    6.2265    2.8637    0.0434 C   0  0
   -8.4013   -1.4836    0.1566 C   0  0
   -4.4244    2.8335   -0.2136 C   0  0
   -2.0866    3.1371   -0.2235 C   0  0
   -3.2785    3.6940   -0.2954 C   0  0
   -2.7827   -0.9207    1.3950 H   0  0
    3.6074    5.6693    0.1172 H   0  0
   -1.4057   -1.7591   -1.2502 H   0  0
   -1.6916  -10.2393   -0.8810 H   0  0
   -3.7557   -8.1631    1.3718 H   0  0
   -3.0347   -5.9826    1.4166 H   0  0
    0.6382   -6.1290   -0.8123 H   0  0
    1.3280    1.9615    0.5464 H   0  0
    3.6866   -1.4764   -0.4139 H   0  0
   -3.0912   -3.5787    1.2596 H   0  0
    0.5524   -3.5993   -1.0151 H   0  0
    1.6490   -2.8319   -0.4903 H   0  0
   -0.6467    0.6329    0.4954 H   0  0
   -5.7819    0.4704    1.1415 H   0  0
    5.0554    4.5868    0.0196 H   0  0
    5.1688   -0.3603    0.0452 H   0  0
   -8.0685   -3.4817   -0.8004 H   0  0
   -0.9688    1.2796    0.0209 H   0  0
   -5.1758    0.9021   -0.0220 H   0  0
   -8.3595    0.4048    1.0896 H   0  0
    7.2149    0.8990   -0.0374 H   0  0
    7.1571    3.4305    0.0681 H   0  0
   -9.4900   -1.5277    0.1280 H   0  0
   -5.4255    3.2606   -0.2718 H   0  0
   -1.1894    3.7519   -0.2953 H   0  0
   -3.3906    4.7718   -0.4131 H   0  0
  2  1  1  0
  3  4  1  0
  4 17  1  0
  5  2  2  0
  6 13  1  0
  7  1  1  0
  8  1  1  0
  9  6  2  0
 10  9  1  0
 11  6  1  0
 12 11  1  0
 13 16  2  0
 14  8  1  0
 15  7  1  0
 16 19  1  0
 17 28  2  0
 18  3  2  0
 19 29  2  0
 20 15  1  0
 21 15  1  0
 22  7  1  0
 23  4  1  0
 24  4  1  0
 25  3  1  0
 26  3  1  0
 27 31  2  0
 28 32  1  0
 29 34  1  0
 30 33  2  0
 31 21  1  0
 32 21  2  0
 33 20  1  0
 34 20  2  0
 35  8  2  0
 36 13  1  0
 37 16  1  0
 38 14  2  0
 39 22  2  0
 40 22  1  0
 41 35  1  0
 42 37  2  0
 43 42  1  0
 44 41  2  0
 45 40  2  0
 46 39  1  0
 47 45  1  0
  5 14  1  0
 38 44  1  0
 47 46  2  0
 17 27  1  0
 19 30  1  0
 36 43  2  0
 10 12  2  0
  7 48  1  0
 11 49  1  0
 15 50  1  0
 25 51  1  0
 26 52  1  0
 27 53  1  0
 28 54  1  0
 29 55  1  0
 30 56  1  0
 31 57  1  0
 32 58  1  0
 33 59  1  0
 34 60  1  0
 35 61  1  0
 36 62  1  0
 37 63  1  0
 38 64  1  0
 39 65  1  0
 40 66  1  0
 41 67  1  0
 42 68  1  0
 43 69  1  0
 44 70  1  0
 45 71  1  0
 46 72  1  0
 47 73  1  0
M  END
> <Name>
Molecule

> <Clean Energy>
139.548

> <From>
www.bindingDB.org

> <BindingDB Reactant_set_id>
50261836

> <Ligand InChI>
InChI=1S/C34H26F2N7O3P/c35-34(36,47(44,45)46)26-20-18-24(19-21-26)31(32(25-8-2-1-3-9-25)43-30-13-7-6-12-29(30)37-42-43)23-16-14-22(15-17-23)27-10-4-5-11-28(27)33-38-40-41-39-33/h1-21,31-32H,(H2,44,45,
46)(H,38,39,40,41)

> <Ligand InChI Key>
YJMPYOYPEFGAPW-UHFFFAOYSA-N

> <BindingDB MonomerID>
50142326

> <BindingDB Ligand Name>
CHEMBL276648::[(4-{2-Benzotriazol-1-yl-2-phenyl-1-[2'-(2H-tetrazol-5-yl)-biphenyl-4-yl]-ethyl}-phenyl)-difluoro-methyl]-phosphonic acid

> <Target Name>
Tyrosine-protein phosphatase non-receptor type 1

> <Target Source Organism According to Curator or DataSource>
Homo sapiens

> <IC50 (nM)>
74

> <Curation/DataSource>
ChEMBL

> <Article DOI>
10.1016/j.bmcl.2003.11.076

> <BindingDB Entry DOI>
10.7270/Q24M9404

> <PMID>
15013020

> <Authors>
Lau, CK; Bayly, CI; Gauthier, JY; Li, CS; Therien, M; Asante-Appiah, E; Cromlish, W; Boie, Y; Forghani, F; Desmarais, S; Wang, Q; Skorey, K; Waddleton, D; Payette, P; Ramachandran, C; Kennedy, BP; Sca
pin, G

> <Institution>
Merck Frosst Centre for Therapeutic Research

> <Link to Ligand in BindingDB>
http://www.bindingdb.org/bind/chemsearch/marvin/MolStructure.jsp?monomerid=50142326

> <Link to Ligand-Target Pair in BindingDB>
http://www.bindingdb.org/jsp/dbsearch/PrimarySearch_ki.jsp?energyterm=kJ/mole&tag=pol&polymerid=2622&target=Tyrosine-protein+phosphatase+non-receptor+type+1&column=ki&startPg=0&Increment=50&submit=Sea
rch
http://www.bindingdb.org/jsp/dbsearch/PrimarySearch_ki.jsp?energyterm=kJ/mole&tag=r21&monomerid=50142326&enzyme=Tyrosine-protein+phosphatase+non-receptor+type+1&column=ki&startPg=0&Increment=50&submit
=Search

> <PubChem CID of Ligand>
44265857

> <PubChem SID of Ligand>
104031717

> <ChEMBL ID of Ligand>
CHEMBL276648

> <ZINC ID of Ligand>
ZINC25989081

> <Number of Protein Chains in Target (bigger than 1 implies a multichain complex)>
1

> <BindingDB Target Chain Sequence>
MEMEKEFEQIDKSGSWAAIYQDIRHEASDFPCRVAKLPKNKNRNRYRDVSPFDHSRIKLHQEDNDYINASLIKMEEAQRSYILTQGPLPNTCGHFWEMVWEQKSRGVVMLNRVMEKGSLKCAQYWPQKEEKEMIFEDTNLKLTLISEDIKSYYTVRQLELENLTTQETREILHFHYTTWPDFGVPESPASFLNFLFKVRE
SGSLSPEHGPVVVHCSAGIGRSGTFCLADTCLLLMDKRKDPSSVDIKKVLLEMRKFRMGLIQTADQLRFSYLAVIEGAKFIMGDSSVQDQWKELSHEDLEPPPEHIPPPPRPPKRILEPHNGKCREFFPNHQWVKEETQEDKDCPIKEEKGSPLNAAPYGIESMSQDTEVRSRVVGGSLRGAQAASPAKGEPSLPEKDED
HALSYWKPFLVNMCVATVLTAGAYLCYRFLFNSNT

> <PDB ID(s) of Target Chain>
1BZJ,1G7G,1GFY,1JF7,1KAK,1KAV,1LQF,1NL9,1NNY,1NO6,1NZ7,1OEM,1OEO,1OES,1OET,1OEU,1OEV,1ONY,1ONZ,1PH0,1PXH,1PYN,1Q1M,1Q6J,1Q6M,1Q6N,1Q6P,1Q6S,1Q6T,1QXK,1SUG,1T48,1T49,1T4J,1WAX,1XBO,2AZR,2B07,2BGD,2BGE,
2CM2,2CM3,2CM7,2CM8,2CMA,2CMB,2CMC,2CNE,2CNF,2CNG,2CNH,2CNI,2F6T,2F6V,2F6W,2F6Y,2F6Z,2F70,2F71,2FJN,2H4G,2H4K,2HB1,2HNP,2HNQ,2QBP,2QBQ,2QBR,2QBS,2VEU,2VEV,2VEW,2VEX,2VEY,2ZMM,2ZN7,3A5J,3CWE,3D9C,3EAX,
3EB1,3EU0,3I7Z,3I80,3SME,4BJO,4I8N,4QBW,4Y14,5K9V,5K9W,5KA0,5KA1,5T19,6B90,6NTP,6W30,7KEY,7KLX,7LFO,7MN9,7MNA,8DU7,8G65,8G67,8G68,8G69,8G6A,8SKL

> <UniProt (SwissProt) Recommended Name of Target Chain>
Tyrosine-protein phosphatase non-receptor type 1

> <UniProt (SwissProt) Entry Name of Target Chain>
PTN1_HUMAN

> <UniProt (SwissProt) Primary ID of Target Chain>
P18031

> <UniProt (SwissProt) Secondary ID(s) of Target Chain>
Q5TGD8 Q9BQV9 Q9NQQ4

$$$$
Molecule
  SciTegic10242319433D

 74 79  0  0  0  0            999 V2000
   10.6757   -4.6517    0.1766 C   0  0
    9.9535   -5.9449   -0.0308 C   0  0
   10.6965   -7.0297   -0.2237 C   0  0
   12.1286   -6.9884   -0.2345 C   0  0
   12.7764   -5.8502   -0.0397 C   0  0
   12.0163   -4.6120    0.1807 C   0  0
   14.2377   -5.9168   -0.0369 C   0  0
   14.8340   -7.1715   -0.4157 C   0  0
   16.1436   -7.3696   -0.4200 C   0  0
   17.0800   -6.2005    0.0185 C   0  0
   16.4802   -5.0419    0.3315 C   0  0
   15.0065   -4.8880    0.3020 C   0  0
    8.3953   -6.0324   -0.0194 C   0  0
    6.2443   -6.7856   -0.0172 O   0  0
    7.6024   -7.1519   -0.0362 C   0  0
    6.1785   -5.4346    0.0064 C   0  0
    7.4662   -4.9089    0.0107 C   0  0
    7.6947   -3.5965    0.0270 C   0  0
    6.5176   -2.7002    0.0450 C   0  0
    5.2795   -3.2142    0.0410 C   0  0
    5.0897   -4.6788    0.0194 C   0  0
   18.5701   -6.1604    0.1513 O   0  0
    8.0858   -8.6198   -0.0560 C   0  0
    7.0490   -9.7242   -0.0306 C   0  0
    5.7398   -9.4821   -0.0132 C   0  0
    4.7875  -10.5974    0.0101 C   0  0
    5.2288  -11.8545    0.0143 C   0  0
    6.6646  -12.1236   -0.0039 C   0  0
    7.5280  -11.1114   -0.0253 C   0  0
   19.4796   -7.2904   -0.0983 C   0  0  1  0  0  0
   20.8828   -6.7094    0.0246 C   0  0
   17.3248   -3.8725    0.7472 C   0  0
   19.2591   -8.5178    0.8714 C   0  0
   19.9807   -9.8203    0.4713 C   0  0
   21.8694   -7.3650    0.7584 O   0  0
   21.1082   -5.5757   -0.4124 O   0  0
   16.5580   -8.7349   -0.9104 C   0  0
   19.5365  -10.9643    0.9926 C   0  0
   20.1400  -12.2441    0.6099 C   0  0
   21.1368  -12.2752   -0.2716 C   0  0
   21.6292  -11.0290   -0.8583 C   0  0
   21.0801   -9.8653   -0.5129 C   0  0
   10.1076   -3.7335    0.3257 H   0  0
   10.1979   -7.9864   -0.3793 H   0  0
   12.6920   -7.9058   -0.4054 H   0  0
   12.5377   -3.6692    0.3462 H   0  0
   14.1805   -7.9924   -0.7111 H   0  0
   14.5534   -3.9304    0.5583 H   0  0
    8.7095   -3.1984    0.0272 H   0  0
    6.6575   -1.6193    0.0615 H   0  0
    4.4138   -2.5520    0.0538 H   0  0
    4.0933   -5.1208    0.0142 H   0  0
    8.6741   -8.7521   -0.9641 H   0  0
    8.7254   -8.7593    0.8155 H   0  0
    5.3757   -8.4547   -0.0163 H   0  0
    3.7162  -10.3972    0.0240 H   0  0
    4.5191  -12.6816    0.0313 H   0  0
    7.0278  -13.1512    0.0000 H   0  0
    8.5989  -11.3140   -0.0390 H   0  0
   19.3351   -7.6301   -1.1239 H   0  0
   16.6828   -3.0188    0.9640 H   0  0
   18.0113   -3.6145   -0.0593 H   0  0
   17.8945   -4.1338    1.6390 H   0  0
   19.6113   -8.2301    1.8620 H   0  0
   18.1898   -8.7256    0.9116 H   0  0
   21.5577   -7.4621    1.7564 H   0  0
   17.6445   -8.8170   -0.8832 H   0  0
   16.2091   -8.8754   -1.9335 H   0  0
   16.1202   -9.5001   -0.2694 H   0  0
   18.7165  -10.9476    1.7105 H   0  0
   19.7718  -13.1719    1.0478 H   0  0
   21.5853  -13.2272   -0.5556 H   0  0
   22.4466  -11.0525   -1.5791 H   0  0
   21.4449   -8.9405   -0.9599 H   0  0
 19 20  2  0
  2  3  2  0
 20 21  1  0
 21 16  2  0
 10 11  2  0
 10 22  1  0
  5  6  1  0
 15 23  1  0
 11 12  1  0
 23 24  1  0
 12  7  2  0
 24 25  2  0
  5  7  1  0
 25 26  1  0
 13 17  1  0
 26 27  2  0
  6  1  2  0
 27 28  1  0
  1  2  1  0
 28 29  2  0
 29 24  1  0
  3  4  1  0
 30 22  1  0
 16 14  1  0
 30 31  1  0
 14 15  1  0
 11 32  1  0
 15 13  2  0
 30 33  1  0
  2 13  1  0
 33 34  1  0
  7  8  1  0
 31 35  1  0
 31 36  2  0
 16 17  1  0
  9 37  1  0
  8  9  2  0
 34 38  2  0
 17 18  2  0
 38 39  1  0
  4  5  2  0
 39 40  2  0
 18 19  1  0
 40 41  1  0
  9 10  1  0
 41 42  2  0
 42 34  1  0
  1 43  1  0
  3 44  1  0
  4 45  1  0
  6 46  1  0
  8 47  1  0
 12 48  1  0
 18 49  1  0
 19 50  1  0
 20 51  1  0
 21 52  1  0
 23 53  1  0
 23 54  1  0
 25 55  1  0
 26 56  1  0
 27 57  1  0
 28 58  1  0
 29 59  1  0
 30 60  1  0
 32 61  1  0
 32 62  1  0
 32 63  1  0
 33 64  1  0
 33 65  1  0
 35 66  1  0
 37 67  1  0
 37 68  1  0
 37 69  1  0
 38 70  1  0
 39 71  1  0
 40 72  1  0
 41 73  1  0
 42 74  1  0
M  END
> <Name>
Molecule

> <Clean Energy>
62.1931

> <From>
www.bindingDB.org

> <BindingDB Reactant_set_id>
51015930

> <Ligand InChI>
InChI=1S/C38H32O4/c1-25-21-31(22-26(2)37(25)42-35(38(39)40)24-28-13-7-4-8-14-28)29-17-19-30(20-18-29)36-32-15-9-10-16-33(32)41-34(36)23-27-11-5-3-6-12-27/h3-22,35H,23-24H2,1-2H3,(H,39,40)/t35-/m1/s1

> <Ligand InChI Key>
IZOXZUFSJZRDLR-PGUFJCEWSA-N

> <BindingDB MonomerID>
50416045

> <BindingDB Ligand Name>
CHEMBL1086229

> <Target Name>
Tyrosine-protein phosphatase non-receptor type 1

> <Target Source Organism According to Curator or DataSource>
Homo sapiens

> <IC50 (nM)>
74.13

> <Curation/DataSource>
ChEMBL

> <Article DOI>
10.1016/j.bmcl.2010.04.033

> <BindingDB Entry DOI>
10.7270/Q27D2WCC

> <PMID>
20452766

> <Authors>
Cheng, Y; Zhou, M; Tung, CH; Ji, M; Zhang, F

> <Institution>
Tsinghua University

> <Link to Ligand in BindingDB>
http://www.bindingdb.org/bind/chemsearch/marvin/MolStructure.jsp?monomerid=50416045

> <Link to Ligand-Target Pair in BindingDB>
http://www.bindingdb.org/jsp/dbsearch/PrimarySearch_ki.jsp?energyterm=kJ/mole&tag=pol&polymerid=2622&target=Tyrosine-protein+phosphatase+non-receptor+type+1&column=ki&startPg=0&Increment=50&submit=Sea
rch
http://www.bindingdb.org/jsp/dbsearch/PrimarySearch_ki.jsp?energyterm=kJ/mole&tag=r21&monomerid=50416045&enzyme=Tyrosine-protein+phosphatase+non-receptor+type+1&column=ki&startPg=0&Increment=50&submit
=Search

> <PubChem CID of Ligand>
9807672

> <PubChem SID of Ligand>
163365069

> <ChEMBL ID of Ligand>
CHEMBL1086229

> <ZINC ID of Ligand>
ZINC28757962

> <Number of Protein Chains in Target (bigger than 1 implies a multichain complex)>
1

> <BindingDB Target Chain Sequence>
MEMEKEFEQIDKSGSWAAIYQDIRHEASDFPCRVAKLPKNKNRNRYRDVSPFDHSRIKLHQEDNDYINASLIKMEEAQRSYILTQGPLPNTCGHFWEMVWEQKSRGVVMLNRVMEKGSLKCAQYWPQKEEKEMIFEDTNLKLTLISEDIKSYYTVRQLELENLTTQETREILHFHYTTWPDFGVPESPASFLNFLFKVRE
SGSLSPEHGPVVVHCSAGIGRSGTFCLADTCLLLMDKRKDPSSVDIKKVLLEMRKFRMGLIQTADQLRFSYLAVIEGAKFIMGDSSVQDQWKELSHEDLEPPPEHIPPPPRPPKRILEPHNGKCREFFPNHQWVKEETQEDKDCPIKEEKGSPLNAAPYGIESMSQDTEVRSRVVGGSLRGAQAASPAKGEPSLPEKDED
HALSYWKPFLVNMCVATVLTAGAYLCYRFLFNSNT

> <PDB ID(s) of Target Chain>
1BZJ,1G7G,1GFY,1JF7,1KAK,1KAV,1LQF,1NL9,1NNY,1NO6,1NZ7,1OEM,1OEO,1OES,1OET,1OEU,1OEV,1ONY,1ONZ,1PH0,1PXH,1PYN,1Q1M,1Q6J,1Q6M,1Q6N,1Q6P,1Q6S,1Q6T,1QXK,1SUG,1T48,1T49,1T4J,1WAX,1XBO,2AZR,2B07,2BGD,2BGE,
2CM2,2CM3,2CM7,2CM8,2CMA,2CMB,2CMC,2CNE,2CNF,2CNG,2CNH,2CNI,2F6T,2F6V,2F6W,2F6Y,2F6Z,2F70,2F71,2FJN,2H4G,2H4K,2HB1,2HNP,2HNQ,2QBP,2QBQ,2QBR,2QBS,2VEU,2VEV,2VEW,2VEX,2VEY,2ZMM,2ZN7,3A5J,3CWE,3D9C,3EAX,
3EB1,3EU0,3I7Z,3I80,3SME,4BJO,4I8N,4QBW,4Y14,5K9V,5K9W,5KA0,5KA1,5T19,6B90,6NTP,6W30,7KEY,7KLX,7LFO,7MN9,7MNA,8DU7,8G65,8G67,8G68,8G69,8G6A,8SKL

> <UniProt (SwissProt) Recommended Name of Target Chain>
Tyrosine-protein phosphatase non-receptor type 1

> <UniProt (SwissProt) Entry Name of Target Chain>
PTN1_HUMAN

> <UniProt (SwissProt) Primary ID of Target Chain>
P18031

> <UniProt (SwissProt) Secondary ID(s) of Target Chain>
Q5TGD8 Q9BQV9 Q9NQQ4

$$$$
Molecule
  SciTegic10242319433D

 65 70  0  0  0  0            999 V2000
   10.9359   -2.4318   -0.9024 S   0  0
   -0.6583   -5.7163    0.0621 C   0  0
    0.1631   -4.6303    0.0276 C   0  0
   -2.0062   -5.3048    0.0100 O   0  0
   -0.7406   -3.4712   -0.0495 C   0  0
   -2.0365   -3.9638   -0.0460 C   0  0
   10.2771   -3.5934    0.2574 O   0  0
   12.0341   -1.1721   -0.2813 C   0  0
   14.6837    2.0551    0.6211 C   0  0
   11.7517   -3.2660   -1.8704 O   0  0
    9.8780   -1.6925   -1.6962 O   0  0
    1.7197   -4.5591    0.0658 C   0  0
   -0.2371   -7.2000    0.1259 C   0  0
   13.7779    0.9345    0.3467 C   0  0
    4.5551   -4.3407    0.1500 C   0  0
    6.0290   -4.1795    0.2002 C   0  0
   14.2255    3.1942    0.7692 O   0  0
   13.3468   -1.3965   -0.2041 C   0  0
   11.5095    0.1726   -0.0287 C   0  0
    2.4825   -5.5917    0.4519 C   0  0
    2.4083   -3.3123   -0.3181 C   0  0
   12.3375    1.1729    0.2664 C   0  0
   14.2617   -0.2918    0.1425 C   0  0
    3.7361   -3.2168   -0.2938 C   0  0
    3.9608   -5.4767    0.5113 C   0  0
    6.5764   -3.1319   -0.4052 C   0  0
    6.8983   -5.1328    0.9172 C   0  0
    8.8300   -3.7708    0.2573 C   0  0
   16.0599    1.8531    0.6430 O   0  0
   -1.3761   -8.2332    0.0722 C   0  0
    8.2229   -4.9266    0.9648 C   0  0
    8.0204   -2.9393   -0.3920 C   0  0
   -0.4843   -2.1670   -0.0870 C   0  0
   -3.1093   -3.1825   -0.0840 C   0  0
   -2.6618   -7.8795    0.0323 C   0  0
   -1.0316   -9.6597    0.0639 C   0  0
   -1.6380   -1.2415   -0.1371 C   0  0
   -2.8874   -1.7258   -0.1345 C   0  0
   -1.9895  -10.5852    0.0179 C   0  0
   -3.7163   -8.8938   -0.0175 C   0  0
   -3.3961  -10.1852   -0.0243 C   0  0
    0.4270   -7.3935   -0.7165 H   0  0
    0.3053   -7.3516    1.0591 H   0  0
   13.7427   -2.3937   -0.3965 H   0  0
   10.4362    0.3549   -0.0826 H   0  0
    2.0080   -6.5335    0.7273 H   0  0
    1.8173   -2.4506   -0.6284 H   0  0
   11.9406    2.1716    0.4485 H   0  0
   15.3321   -0.4777    0.2317 H   0  0
    4.2163   -2.2903   -0.6085 H   0  0
    4.5601   -6.3215    0.8506 H   0  0
    5.9397   -2.4099   -0.9165 H   0  0
    6.4641   -6.0039    1.4077 H   0  0
   16.2990    1.1490    1.3844 H   0  0
    8.8577   -5.6120    1.5264 H   0  0
    8.4481   -2.0921   -0.9281 H   0  0
    0.5395   -1.7927   -0.0812 H   0  0
   -4.1153   -3.6019   -0.0781 H   0  0
   -2.9303   -6.8231    0.0368 H   0  0
    0.0145   -9.9643    0.0957 H   0  0
   -1.4712   -0.1650   -0.1760 H   0  0
   -3.7376   -1.0445   -0.1698 H   0  0
   -1.7244  -11.6425    0.0115 H   0  0
   -4.7630   -8.5912   -0.0490 H   0  0
   -4.1792  -10.9425   -0.0611 H   0  0
  2  3  2  0
  3 12  1  0
  4  2  1  0
  5  3  1  0
  6  5  1  0
  7  1  1  0
  8  1  1  0
  9 14  1  0
 10  1  2  0
 11  1  2  0
 12 20  2  0
 13  2  1  0
 14 22  1  0
 15 16  1  0
 16 26  2  0
 17  9  2  0
 18  8  2  0
 19  8  1  0
 20 25  1  0
 21 24  2  0
 22 19  2  0
 23 18  1  0
 24 15  1  0
 25 15  2  0
 26 32  1  0
 27 31  2  0
 28  7  1  0
 29  9  1  0
 30 13  1  0
 31 28  1  0
 32 28  2  0
 33  5  2  0
 34  6  2  0
 35 30  2  0
 36 30  1  0
 37 33  1  0
 38 37  2  0
 39 36  2  0
 40 35  1  0
 41 39  1  0
 23 14  2  0
 16 27  1  0
 21 12  1  0
  6  4  1  0
 38 34  1  0
 40 41  2  0
 13 42  1  0
 13 43  1  0
 18 44  1  0
 19 45  1  0
 20 46  1  0
 21 47  1  0
 22 48  1  0
 23 49  1  0
 24 50  1  0
 25 51  1  0
 26 52  1  0
 27 53  1  0
 29 54  1  0
 31 55  1  0
 32 56  1  0
 33 57  1  0
 34 58  1  0
 35 59  1  0
 36 60  1  0
 37 61  1  0
 38 62  1  0
 39 63  1  0
 40 64  1  0
 41 65  1  0
M  END
> <Name>
Molecule

> <Clean Energy>
51.9063

> <From>
www.bindingDB.org

> <BindingDB Reactant_set_id>
50154678

> <Ligand InChI>
InChI=1S/C34H24O6S/c35-34(36)27-16-20-29(21-17-27)41(37,38)40-28-18-14-25(15-19-28)24-10-12-26(13-11-24)33-30-8-4-5-9-31(30)39-32(33)22-23-6-2-1-3-7-23/h1-21H,22H2,(H,35,36)

> <Ligand InChI Key>
BKDAKVUORDCYCP-UHFFFAOYSA-N

> <BindingDB MonomerID>
50086993

> <BindingDB Ligand Name>
4-[4''-(2-Benzyl-benzofuran-3-yl)-biphenyl-4-yloxysulfonyl]-benzoic acid::4-[4'-(2-Benzyl-benzofuran-3-yl)-biphenyl-4-yloxysulfonyl]-benzoic acid::CHEMBL276983

> <Target Name>
Tyrosine-protein phosphatase non-receptor type 1

> <Target Source Organism According to Curator or DataSource>
Homo sapiens

> <IC50 (nM)>
75

> <Curation/DataSource>
ChEMBL

> <Article DOI>
10.1021/jm990560c

> <BindingDB Entry DOI>
10.7270/Q2W958FT

> <PMID>
10753467

> <Authors>
Malamas, MS; Sredy, J; Moxham, C; Katz, A; Xu, W; McDevitt, R; Adebayo, FO; Sawicki, DR; Seestaller, L; Sullivan, D; Taylor, JR

> <Institution>
Wyeth-Ayerst Research

> <Link to Ligand in BindingDB>
http://www.bindingdb.org/bind/chemsearch/marvin/MolStructure.jsp?monomerid=50086993

> <Link to Ligand-Target Pair in BindingDB>
http://www.bindingdb.org/jsp/dbsearch/PrimarySearch_ki.jsp?energyterm=kJ/mole&tag=pol&polymerid=2622&target=Tyrosine-protein+phosphatase+non-receptor+type+1&column=ki&startPg=0&Increment=50&submit=Sea
rch
http://www.bindingdb.org/jsp/dbsearch/PrimarySearch_ki.jsp?energyterm=kJ/mole&tag=r21&monomerid=50086993&enzyme=Tyrosine-protein+phosphatase+non-receptor+type+1&column=ki&startPg=0&Increment=50&submit
=Search

> <PubChem CID of Ligand>
9850783

> <PubChem SID of Ligand>
103986104

> <ChEMBL ID of Ligand>
CHEMBL276983

> <ZINC ID of Ligand>
ZINC02008087

> <Number of Protein Chains in Target (bigger than 1 implies a multichain complex)>
1

> <BindingDB Target Chain Sequence>
MEMEKEFEQIDKSGSWAAIYQDIRHEASDFPCRVAKLPKNKNRNRYRDVSPFDHSRIKLHQEDNDYINASLIKMEEAQRSYILTQGPLPNTCGHFWEMVWEQKSRGVVMLNRVMEKGSLKCAQYWPQKEEKEMIFEDTNLKLTLISEDIKSYYTVRQLELENLTTQETREILHFHYTTWPDFGVPESPASFLNFLFKVRE
SGSLSPEHGPVVVHCSAGIGRSGTFCLADTCLLLMDKRKDPSSVDIKKVLLEMRKFRMGLIQTADQLRFSYLAVIEGAKFIMGDSSVQDQWKELSHEDLEPPPEHIPPPPRPPKRILEPHNGKCREFFPNHQWVKEETQEDKDCPIKEEKGSPLNAAPYGIESMSQDTEVRSRVVGGSLRGAQAASPAKGEPSLPEKDED
HALSYWKPFLVNMCVATVLTAGAYLCYRFLFNSNT

> <PDB ID(s) of Target Chain>
1BZJ,1G7G,1GFY,1JF7,1KAK,1KAV,1LQF,1NL9,1NNY,1NO6,1NZ7,1OEM,1OEO,1OES,1OET,1OEU,1OEV,1ONY,1ONZ,1PH0,1PXH,1PYN,1Q1M,1Q6J,1Q6M,1Q6N,1Q6P,1Q6S,1Q6T,1QXK,1SUG,1T48,1T49,1T4J,1WAX,1XBO,2AZR,2B07,2BGD,2BGE,
2CM2,2CM3,2CM7,2CM8,2CMA,2CMB,2CMC,2CNE,2CNF,2CNG,2CNH,2CNI,2F6T,2F6V,2F6W,2F6Y,2F6Z,2F70,2F71,2FJN,2H4G,2H4K,2HB1,2HNP,2HNQ,2QBP,2QBQ,2QBR,2QBS,2VEU,2VEV,2VEW,2VEX,2VEY,2ZMM,2ZN7,3A5J,3CWE,3D9C,3EAX,
3EB1,3EU0,3I7Z,3I80,3SME,4BJO,4I8N,4QBW,4Y14,5K9V,5K9W,5KA0,5KA1,5T19,6B90,6NTP,6W30,7KEY,7KLX,7LFO,7MN9,7MNA,8DU7,8G65,8G67,8G68,8G69,8G6A,8SKL

> <UniProt (SwissProt) Recommended Name of Target Chain>
Tyrosine-protein phosphatase non-receptor type 1

> <UniProt (SwissProt) Entry Name of Target Chain>
PTN1_HUMAN

> <UniProt (SwissProt) Primary ID of Target Chain>
P18031

> <UniProt (SwissProt) Secondary ID(s) of Target Chain>
Q5TGD8 Q9BQV9 Q9NQQ4

$$$$
Molecule
  SciTegic10242319433D

 59 63  0  0  0  0            999 V2000
   -0.5779  -23.4230   -0.3135 C   0  0
   -0.5009  -24.6981   -0.7067 C   0  0
    0.7397  -25.4871   -0.4713 C   0  0
    1.8028  -24.9169    0.1025 C   0  0
    1.7058  -23.5073    0.5242 C   0  0
    0.5782  -22.8424    0.3320 C   0  0
   -1.8664  -22.5861   -0.6430 C   0  0
    3.0791  -25.7164    0.3526 C   0  0  1  0  0  0
   -2.1025  -21.1139   -0.0088 C   0  0  2  0  0  0
   -3.4463  -20.5635   -0.4817 N   0  0
   -0.9656  -20.0419   -0.2001 C   0  0
    0.2837  -20.3349   -0.3302 N   0  0
   -1.1379  -18.6122   -0.1080 N   0  0
    0.1620  -18.1042   -0.1901 C   0  0
    1.0097  -19.1750   -0.3307 C   0  0
    2.3376  -19.0472   -0.4082 C   0  0
    2.8875  -17.6810   -0.3588 C   0  0
    2.0599  -16.6329   -0.2324 C   0  0
    0.5876  -16.8535   -0.1352 C   0  0
    2.9859  -27.4652    0.1338 S   0  0
    4.6420  -27.6799    0.3087 N   0  5
    5.2650  -26.4834   -0.1438 C   0  0
    4.2757  -25.3837   -0.5840 C   0  0
    2.5667  -27.8223   -1.2798 O   0  0
    2.1141  -28.1424    1.1731 O   0  0
    6.4921  -26.3367   -0.1828 O   0  0
   -4.7475  -21.0131    0.6494 S   0  0
   -6.2459  -21.8101    0.0602 C   0  0
   -4.1593  -21.9252    1.7043 O   0  0
   -5.2017  -19.7165    1.2890 O   0  0
   -7.3725  -21.0956    0.0270 C   0  0
   -8.6556  -21.7347   -0.2847 C   0  0
   -8.7080  -23.0485   -0.4966 C   0  0
   -7.4741  -23.8469   -0.4453 C   0  0
   -6.3018  -23.2601   -0.1851 C   0  0
    2.8547  -22.7765    1.1772 C   0  0
  -10.1059  -20.7900   -0.3172 Cl  0  0
   -1.3523  -25.1636   -1.2033 H   0  0
    0.7807  -26.5350   -0.7685 H   0  0
    0.5181  -21.8099    0.6760 H   0  0
   -2.7161  -23.1945   -0.3333 H   0  0
   -1.8838  -22.4612   -1.7257 H   0  0
    3.3958  -25.5257    1.3779 H   0  0
   -2.1993  -21.2614    1.0669 H   0  0
   -3.6684  -20.9638   -1.4488 H   0  0
   -2.0517  -18.0658   -0.0013 H   0  0
    2.9870  -19.9173   -0.5041 H   0  0
    3.9639  -17.5225   -0.4247 H   0  0
    2.4629  -15.6207   -0.2008 H   0  0
   -0.1065  -16.0205   -0.0238 H   0  0
    4.6706  -24.3849   -0.3981 H   0  0
    4.0059  -25.4784   -1.6358 H   0  0
   -7.3389  -20.0259    0.2336 H   0  0
   -9.6626  -23.5306   -0.7073 H   0  0
   -7.5157  -24.9219   -0.6204 H   0  0
   -5.3887  -23.8546   -0.1545 H   0  0
    2.5548  -21.7527    1.4004 H   0  0
    3.7097  -22.7649    0.5012 H   0  0
    3.1300  -23.2837    2.1019 H   0  0
 17 18  2  0
  3  4  2  0
 18 19  1  0
 19 14  2  0
  8 20  1  0
  9  7  1  0
  1  2  2  0
  9 10  1  0
  4  5  1  0
 20 21  1  0
 21 22  1  0
 22 23  1  0
  8 23  1  0
  9 11  1  0
 20 24  2  0
 11 12  2  0
 20 25  2  0
 22 26  2  0
  5  6  2  0
 10 27  1  0
 12 15  1  0
 27 28  1  0
 14 13  1  0
 27 29  2  0
 13 11  1  0
 27 30  2  0
  6  1  1  0
 28 31  2  0
  2  3  1  0
 31 32  1  0
 14 15  1  0
 32 33  2  0
  1  7  1  0
 33 34  1  0
 15 16  2  0
 34 35  2  0
 35 28  1  0
  5 36  1  0
 16 17  1  0
 32 37  1  0
  8  4  1  0
  2 38  1  0
  3 39  1  0
  6 40  1  0
  7 41  1  0
  7 42  1  0
  8 43  1  0
  9 44  1  0
 10 45  1  0
 13 46  1  0
 16 47  1  0
 17 48  1  0
 18 49  1  0
 19 50  1  0
 23 51  1  0
 23 52  1  0
 31 53  1  0
 33 54  1  0
 34 55  1  0
 35 56  1  0
 36 57  1  0
 36 58  1  0
 36 59  1  0
M  CHG  1  21  -1
M  END
> <Name>
Molecule

> <Clean Energy>
100.323

> <From>
www.bindingDB.org

> <BindingDB Reactant_set_id>
50350947

> <Ligand InChI>
InChI=1S/C25H23ClN4O5S2/c1-15-11-16(9-10-19(15)23-14-24(31)30-37(23,34)35)12-22(25-27-20-7-2-3-8-21(20)28-25)29-36(32,33)18-6-4-5-17(26)13-18/h2-11,13,22-23,29H,12,14H2,1H3,(H2,27,28,30,31)/p-1/t22-,2
3-/m0/s1

> <Ligand InChI Key>
OERWZOKGTIZPKM-GOTSBHOMSA-M

> <BindingDB MonomerID>
50189669

> <BindingDB Ligand Name>
CHEMBL377441::N-((1S)-1-(1H-benzimidazol-2yl)-2-{4-[(5S)-1,1-dioxo-3-oxoisothiazolidin-5-yl]-3-methylphenyl}ethyl)-3-chlorobenzenesulfonamide

> <Target Name>
Tyrosine-protein phosphatase non-receptor type 1

> <Target Source Organism According to Curator or DataSource>
Homo sapiens

> <IC50 (nM)>
76

> <Curation/DataSource>
ChEMBL

> <Article DOI>
10.1021/jm0600904

> <BindingDB Entry DOI>
10.7270/Q2JQ10M8

> <PMID>
16789735

> <Authors>
Combs, AP; Zhu, W; Crawley, ML; Glass, B; Polam, P; Sparks, RB; Modi, D; Takvorian, A; McLaughlin, E; Yue, EW; Wasserman, Z; Bower, M; Wei, M; Rupar, M; Ala, PJ; Reid, BM; Ellis, D; Gonneville, L; Emm
, T; Taylor, N; Yeleswaram, S; Li, Y; Wynn, R; Burn, TC; Hollis, G; Liu, PC; Metcalf, B

> <Institution>
Incyte Corporation

> <Link to Ligand in BindingDB>
http://www.bindingdb.org/bind/chemsearch/marvin/MolStructure.jsp?monomerid=50189669

> <Link to Ligand-Target Pair in BindingDB>
http://www.bindingdb.org/jsp/dbsearch/PrimarySearch_ki.jsp?energyterm=kJ/mole&tag=pol&polymerid=2622&target=Tyrosine-protein+phosphatase+non-receptor+type+1&column=ki&startPg=0&Increment=50&submit=Sea
rch
http://www.bindingdb.org/jsp/dbsearch/PrimarySearch_ki.jsp?energyterm=kJ/mole&tag=r21&monomerid=50189669&enzyme=Tyrosine-protein+phosphatase+non-receptor+type+1&column=ki&startPg=0&Increment=50&submit
=Search

> <PubChem CID of Ligand>
91936149

> <PubChem SID of Ligand>
104073190

> <ChEMBL ID of Ligand>
CHEMBL377441

> <ZINC ID of Ligand>
ZINC36088655

> <Number of Protein Chains in Target (bigger than 1 implies a multichain complex)>
1

> <BindingDB Target Chain Sequence>
MEMEKEFEQIDKSGSWAAIYQDIRHEASDFPCRVAKLPKNKNRNRYRDVSPFDHSRIKLHQEDNDYINASLIKMEEAQRSYILTQGPLPNTCGHFWEMVWEQKSRGVVMLNRVMEKGSLKCAQYWPQKEEKEMIFEDTNLKLTLISEDIKSYYTVRQLELENLTTQETREILHFHYTTWPDFGVPESPASFLNFLFKVRE
SGSLSPEHGPVVVHCSAGIGRSGTFCLADTCLLLMDKRKDPSSVDIKKVLLEMRKFRMGLIQTADQLRFSYLAVIEGAKFIMGDSSVQDQWKELSHEDLEPPPEHIPPPPRPPKRILEPHNGKCREFFPNHQWVKEETQEDKDCPIKEEKGSPLNAAPYGIESMSQDTEVRSRVVGGSLRGAQAASPAKGEPSLPEKDED
HALSYWKPFLVNMCVATVLTAGAYLCYRFLFNSNT

> <PDB ID(s) of Target Chain>
1BZJ,1G7G,1GFY,1JF7,1KAK,1KAV,1LQF,1NL9,1NNY,1NO6,1NZ7,1OEM,1OEO,1OES,1OET,1OEU,1OEV,1ONY,1ONZ,1PH0,1PXH,1PYN,1Q1M,1Q6J,1Q6M,1Q6N,1Q6P,1Q6S,1Q6T,1QXK,1SUG,1T48,1T49,1T4J,1WAX,1XBO,2AZR,2B07,2BGD,2BGE,
2CM2,2CM3,2CM7,2CM8,2CMA,2CMB,2CMC,2CNE,2CNF,2CNG,2CNH,2CNI,2F6T,2F6V,2F6W,2F6Y,2F6Z,2F70,2F71,2FJN,2H4G,2H4K,2HB1,2HNP,2HNQ,2QBP,2QBQ,2QBR,2QBS,2VEU,2VEV,2VEW,2VEX,2VEY,2ZMM,2ZN7,3A5J,3CWE,3D9C,3EAX,
3EB1,3EU0,3I7Z,3I80,3SME,4BJO,4I8N,4QBW,4Y14,5K9V,5K9W,5KA0,5KA1,5T19,6B90,6NTP,6W30,7KEY,7KLX,7LFO,7MN9,7MNA,8DU7,8G65,8G67,8G68,8G69,8G6A,8SKL

> <UniProt (SwissProt) Recommended Name of Target Chain>
Tyrosine-protein phosphatase non-receptor type 1

> <UniProt (SwissProt) Entry Name of Target Chain>
PTN1_HUMAN

> <UniProt (SwissProt) Primary ID of Target Chain>
P18031

> <UniProt (SwissProt) Secondary ID(s) of Target Chain>
Q5TGD8 Q9BQV9 Q9NQQ4

$$$$
Molecule
  SciTegic10242319433D

 72 77  0  0  0  0            999 V2000
    0.8640   -5.3971   -0.0195 C   0  0
    1.4276   -4.1416    0.0142 C   0  0
   -0.8428   -5.2382   -0.0337 S   0  0
    0.2901   -3.0482    0.0251 C   0  0
   -1.0051   -3.6258   -0.0026 C   0  0
   13.3393   -0.3533   -0.0149 C   0  0
   11.8353   -0.1520    0.1902 C   0  0  2  0  0  0
    2.9658   -3.7731    0.0387 C   0  0
    1.5977   -6.7797   -0.0338 C   0  0
   11.2721   -1.4928   -0.0828 O   0  0
    5.7114   -2.9965    0.0682 C   0  0
    7.1376   -2.5756    0.0669 C   0  0
   11.2501    1.0679   -0.6528 C   0  0
   14.0415    0.5130   -0.5466 O   0  0
    3.3411   -2.4990    0.1903 C   0  0
    4.0537   -4.7772   -0.1125 C   0  0
    5.3404   -4.4090   -0.1045 C   0  0
    4.7509   -2.0912    0.2119 C   0  0
    8.0904   -3.4651   -0.1954 C   0  0
    7.5140   -1.1724    0.3401 C   0  0
    9.8583   -1.7881    0.0062 C   0  0
    0.7244   -8.0714   -0.0224 C   0  0
   13.9078   -1.5810    0.3058 O   0  0
   -0.8041  -10.4444   -0.0005 C   0  0
    9.4974   -3.0509   -0.2323 C   0  0
    8.7995   -0.7991    0.3225 C   0  0
   11.7348    2.5003   -0.2677 C   0  0
   -0.6075   -8.0374   -0.0091 C   0  0
    1.3898   -9.3847   -0.0245 C   0  0
    0.6679  -10.5087   -0.0140 C   0  0
   -1.4033   -9.2595    0.0018 C   0  0
    0.4097   -1.7216    0.0465 C   0  0
   -1.5892  -11.6096    0.0098 O   0  0
   -2.1331   -2.9277   -0.0055 C   0  0
   12.7887    2.7267    0.5230 C   0  0
   10.9863    3.6545   -0.7877 C   0  0
   -0.7745  -12.7868    0.0053 C   0  0
   -0.8164   -0.8917    0.0460 C   0  0
   -2.0245   -1.4666    0.0217 C   0  0
   13.2064    4.0951    0.8481 C   0  0
   11.3568    4.8986   -0.4822 C   0  0
   12.5230    5.1312    0.3690 C   0  0
   11.6718    0.0667    1.2454 H   0  0
    2.2117   -6.8115   -0.9339 H   0  0
    2.2400   -6.8149    0.8462 H   0  0
   11.5158    0.9019   -1.6968 H   0  0
   10.1655    1.0494   -0.5460 H   0  0
    2.5719   -1.7349    0.3020 H   0  0
    3.7983   -5.8302   -0.2318 H   0  0
    6.1192   -5.1617   -0.2270 H   0  0
    5.0103   -1.0411    0.3464 H   0  0
    7.8254   -4.5055   -0.3837 H   0  0
    6.7396   -0.4368    0.5573 H   0  0
   13.7532   -1.7835    1.3245 H   0  0
   10.2650   -3.7907   -0.4594 H   0  0
    9.0686    0.2343    0.5413 H   0  0
   -1.1148   -7.0726   -0.0063 H   0  0
    2.4783   -9.4403   -0.0347 H   0  0
    1.1694  -11.4765   -0.0154 H   0  0
   -2.4916   -9.2002    0.0119 H   0  0
    1.3945   -1.2546    0.0642 H   0  0
   -3.1042   -3.4222   -0.0273 H   0  0
   13.3451    1.8832    0.9317 H   0  0
   10.1202    3.4914   -1.4291 H   0  0
   -1.4122  -13.6707    0.0135 H   0  0
   -0.1368  -12.7914    0.8894 H   0  0
   -0.1533  -12.7960   -0.8903 H   0  0
   -0.7344    0.1950    0.0655 H   0  0
   -2.9239   -0.8508    0.0223 H   0  0
   14.0768    4.2629    1.4824 H   0  0
   10.7886    5.7449   -0.8681 H   0  0
   12.8309    6.1487    0.6098 H   0  0
  2  1  2  0
  3  1  1  0
  4  2  1  0
  5  3  1  0
  6  7  1  0
 10  7  1  0
  8  2  1  0
  9  1  1  0
 10 21  1  0
 11 17  1  0
 12 11  1  0
 13  7  1  0
 14  6  2  0
 15  8  2  0
 16  8  1  0
 17 16  2  0
 18 15  1  0
 19 12  2  0
 20 12  1  0
 21 26  1  0
 22  9  1  0
 23  6  1  0
 24 30  1  0
 25 19  1  0
 26 20  2  0
 27 13  1  0
 28 22  2  0
 29 22  1  0
 30 29  2  0
 31 28  1  0
 32  4  2  0
 33 24  1  0
 34  5  2  0
 35 27  2  0
 36 27  1  0
 37 33  1  0
 38 32  1  0
 39 34  1  0
 40 35  1  0
 41 36  2  0
 42 41  1  0
  4  5  1  0
 31 24  2  0
 38 39  2  0
 11 18  2  0
 25 21  2  0
 40 42  2  0
  7 43  1  0
  9 44  1  0
  9 45  1  0
 13 46  1  0
 13 47  1  0
 15 48  1  0
 16 49  1  0
 17 50  1  0
 18 51  1  0
 19 52  1  0
 20 53  1  0
 23 54  1  0
 25 55  1  0
 26 56  1  0
 28 57  1  0
 29 58  1  0
 30 59  1  0
 31 60  1  0
 32 61  1  0
 34 62  1  0
 35 63  1  0
 36 64  1  0
 37 65  1  0
 37 66  1  0
 37 67  1  0
 38 68  1  0
 39 69  1  0
 40 70  1  0
 41 71  1  0
 42 72  1  0
M  END
> <Name>
Molecule

> <Clean Energy>
47.2723

> <From>
www.bindingDB.org

> <BindingDB Reactant_set_id>
50154670

> <Ligand InChI>
InChI=1S/C37H30O4S/c1-40-30-19-11-26(12-20-30)24-35-36(32-9-5-6-10-34(32)42-35)29-15-13-27(14-16-29)28-17-21-31(22-18-28)41-33(37(38)39)23-25-7-3-2-4-8-25/h2-22,33H,23-24H2,1H3,(H,38,39)

> <Ligand InChI Key>
RPKFDAKJPCPGAN-UHFFFAOYSA-N

> <BindingDB MonomerID>
50086985

> <BindingDB Ligand Name>
2-{4'-[2-(4-Methoxy-benzyl)-benzo[b]thiophen-3-yl]-biphenyl-4-yloxy}-3-phenyl-propionic acid::CHEMBL287305

> <Target Name>
Tyrosine-protein phosphatase non-receptor type 1

> <Target Source Organism According to Curator or DataSource>
Homo sapiens

> <IC50 (nM)>
77

> <Curation/DataSource>
ChEMBL

> <Article DOI>
10.1021/jm990560c

> <BindingDB Entry DOI>
10.7270/Q2W958FT

> <PMID>
10753467

> <Authors>
Malamas, MS; Sredy, J; Moxham, C; Katz, A; Xu, W; McDevitt, R; Adebayo, FO; Sawicki, DR; Seestaller, L; Sullivan, D; Taylor, JR

> <Institution>
Wyeth-Ayerst Research

> <Link to Ligand in BindingDB>
http://www.bindingdb.org/bind/chemsearch/marvin/MolStructure.jsp?monomerid=50086985

> <Link to Ligand-Target Pair in BindingDB>
http://www.bindingdb.org/jsp/dbsearch/PrimarySearch_ki.jsp?energyterm=kJ/mole&tag=pol&polymerid=2622&target=Tyrosine-protein+phosphatase+non-receptor+type+1&column=ki&startPg=0&Increment=50&submit=Sea
rch
http://www.bindingdb.org/jsp/dbsearch/PrimarySearch_ki.jsp?energyterm=kJ/mole&tag=r21&monomerid=50086985&enzyme=Tyrosine-protein+phosphatase+non-receptor+type+1&column=ki&startPg=0&Increment=50&submit
=Search

> <PubChem CID of Ligand>
44274663

> <PubChem SID of Ligand>
103986096

> <ChEMBL ID of Ligand>
CHEMBL287305

> <ZINC ID of Ligand>
ZINC28757821

> <Number of Protein Chains in Target (bigger than 1 implies a multichain complex)>
1

> <BindingDB Target Chain Sequence>
MEMEKEFEQIDKSGSWAAIYQDIRHEASDFPCRVAKLPKNKNRNRYRDVSPFDHSRIKLHQEDNDYINASLIKMEEAQRSYILTQGPLPNTCGHFWEMVWEQKSRGVVMLNRVMEKGSLKCAQYWPQKEEKEMIFEDTNLKLTLISEDIKSYYTVRQLELENLTTQETREILHFHYTTWPDFGVPESPASFLNFLFKVRE
SGSLSPEHGPVVVHCSAGIGRSGTFCLADTCLLLMDKRKDPSSVDIKKVLLEMRKFRMGLIQTADQLRFSYLAVIEGAKFIMGDSSVQDQWKELSHEDLEPPPEHIPPPPRPPKRILEPHNGKCREFFPNHQWVKEETQEDKDCPIKEEKGSPLNAAPYGIESMSQDTEVRSRVVGGSLRGAQAASPAKGEPSLPEKDED
HALSYWKPFLVNMCVATVLTAGAYLCYRFLFNSNT

> <PDB ID(s) of Target Chain>
1BZJ,1G7G,1GFY,1JF7,1KAK,1KAV,1LQF,1NL9,1NNY,1NO6,1NZ7,1OEM,1OEO,1OES,1OET,1OEU,1OEV,1ONY,1ONZ,1PH0,1PXH,1PYN,1Q1M,1Q6J,1Q6M,1Q6N,1Q6P,1Q6S,1Q6T,1QXK,1SUG,1T48,1T49,1T4J,1WAX,1XBO,2AZR,2B07,2BGD,2BGE,
2CM2,2CM3,2CM7,2CM8,2CMA,2CMB,2CMC,2CNE,2CNF,2CNG,2CNH,2CNI,2F6T,2F6V,2F6W,2F6Y,2F6Z,2F70,2F71,2FJN,2H4G,2H4K,2HB1,2HNP,2HNQ,2QBP,2QBQ,2QBR,2QBS,2VEU,2VEV,2VEW,2VEX,2VEY,2ZMM,2ZN7,3A5J,3CWE,3D9C,3EAX,
3EB1,3EU0,3I7Z,3I80,3SME,4BJO,4I8N,4QBW,4Y14,5K9V,5K9W,5KA0,5KA1,5T19,6B90,6NTP,6W30,7KEY,7KLX,7LFO,7MN9,7MNA,8DU7,8G65,8G67,8G68,8G69,8G6A,8SKL

> <UniProt (SwissProt) Recommended Name of Target Chain>
Tyrosine-protein phosphatase non-receptor type 1

> <UniProt (SwissProt) Entry Name of Target Chain>
PTN1_HUMAN

> <UniProt (SwissProt) Primary ID of Target Chain>
P18031

> <UniProt (SwissProt) Secondary ID(s) of Target Chain>
Q5TGD8 Q9BQV9 Q9NQQ4

$$$$
Molecule
  SciTegic10242319433D

 77 83  0  0  0  0            999 V2000
    1.0440   -4.8894   -0.0834 C   0  0
    1.5904   -3.6268   -0.0179 C   0  0
   -0.6654   -4.7568   -0.1047 S   0  0
    0.0180  -12.0831   -0.0739 C   0  0
    1.1709  -11.2406   -0.3244 O   0  0
    0.4380   -2.5502    0.0213 C   0  0
   -1.0230  -11.1453    0.2683 O   0  0
   -0.8499   -3.1446   -0.0261 C   0  0
    0.8126   -9.9646   -0.1386 C   0  0
   -0.5141   -9.9121    0.2218 C   0  0
   13.4758    0.2715   -0.0131 C   0  0
   11.9714    0.4721    0.1932 C   0  0  2  0  0  0
    3.1242   -3.2369    0.0140 C   0  0
    1.7931   -6.2608   -0.1399 C   0  0
   11.4110   -0.8682   -0.0869 O   0  0
    1.5699   -8.8765   -0.2658 C   0  0
    5.8605   -2.4220    0.0523 C   0  0
    7.2838   -1.9841    0.0545 C   0  0
    0.9364   -7.5562   -0.0040 C   0  0
   11.3847    1.6942   -0.6457 C   0  0
   14.1779    1.1382   -0.5444 O   0  0
   -1.1388   -8.7729    0.4747 C   0  0
    3.4827   -1.9596    0.1829 C   0  0
    4.2254   -4.2233   -0.1513 C   0  0
    5.5072   -3.8375   -0.1389 C   0  0
    4.8879   -1.5319    0.2090 C   0  0
    8.2448   -2.8624   -0.2147 C   0  0
    7.6487   -0.5780    0.3379 C   0  0
    9.9987   -1.1721   -0.0006 C   0  0
   14.0448   -0.9564    0.3062 O   0  0
   -0.3561   -7.5307    0.3539 C   0  0
    8.9318   -0.1931    0.3225 C   0  0
    9.6476   -2.4359   -0.2480 C   0  0
   11.8743    3.1268   -0.2626 C   0  0
   -0.3608  -12.8924   -1.3276 C   0  0
    0.2829  -13.0528    1.0916 C   0  0
    0.5403   -1.2231    0.0823 C   0  0
   -1.9866   -2.4603   -0.0103 C   0  0
   12.9305    3.3514    0.5257 C   0  0
   11.1291    4.2828   -0.7837 C   0  0
   -0.6956   -0.4090    0.1040 C   0  0
   -1.8963   -0.9983    0.0606 C   0  0
   11.5048    5.5263   -0.4815 C   0  0
   13.3536    4.7192    0.8474 C   0  0
   12.6732    5.7566    0.3672 C   0  0
   11.8073    0.6859    1.2494 H   0  0
    2.3103   -6.3108   -1.0981 H   0  0
    2.5240   -6.2668    0.6688 H   0  0
    2.6190   -8.9509   -0.5521 H   0  0
   11.6446    1.5282   -1.6911 H   0  0
   10.3007    1.6779   -0.5332 H   0  0
   -2.1904   -8.7546    0.7608 H   0  0
    2.7031   -1.2077    0.3057 H   0  0
    3.9846   -5.2780   -0.2849 H   0  0
    6.2958   -4.5782   -0.2714 H   0  0
    5.1328   -0.4802    0.3574 H   0  0
    7.9891   -3.9036   -0.4113 H   0  0
    6.8681    0.1494    0.5608 H   0  0
   13.8909   -1.1598    1.3248 H   0  0
   -0.8359   -6.5737    0.5589 H   0  0
    9.1923    0.8411    0.5477 H   0  0
   10.4213   -3.1677   -0.4803 H   0  0
   -1.2286  -13.5150   -1.1102 H   0  0
    0.4769  -13.5263   -1.6182 H   0  0
   -0.5993  -12.2096   -2.1431 H   0  0
   -0.5986  -13.6722    1.2571 H   0  0
    0.5017  -12.4841    1.9954 H   0  0
    1.1335  -13.6898    0.8488 H   0  0
    1.5190   -0.7444    0.1158 H   0  0
   -2.9515   -2.9659   -0.0486 H   0  0
   13.4849    2.5069    0.9351 H   0  0
   10.2612    4.1216   -1.4231 H   0  0
   -0.6274    0.6776    0.1556 H   0  0
   -2.8033   -0.3941    0.0779 H   0  0
   10.9389    6.3738   -0.8683 H   0  0
   14.2256    4.8852    1.4800 H   0  0
   12.9852    6.7736    0.6052 H   0  0
  2  1  2  0
  3  1  1  0
  4  5  1  0
  5  9  1  0
  6  2  1  0
  7 10  1  0
  8  3  1  0
  9 16  2  0
 10 22  2  0
 11 12  1  0
 15 12  1  0
 13  2  1  0
 14  1  1  0
 15 29  1  0
 16 19  1  0
 17 25  1  0
 18 17  1  0
 19 14  1  0
 20 12  1  0
 21 11  2  0
 22 31  1  0
 23 13  2  0
 24 13  1  0
 25 24  2  0
 26 23  1  0
 27 18  2  0
 28 18  1  0
 29 32  1  0
 30 11  1  0
 31 19  2  0
 32 28  2  0
 33 27  1  0
 34 20  1  0
 35  4  1  0
 36  4  1  0
 37  6  2  0
 38  8  2  0
 39 34  2  0
 40 34  1  0
 41 37  1  0
 42 38  1  0
 43 40  2  0
 44 39  1  0
 45 43  1  0
  6  8  1  0
 41 42  2  0
 17 26  2  0
  9 10  1  0
  7  4  1  0
 33 29  2  0
 44 45  2  0
 12 46  1  0
 14 47  1  0
 14 48  1  0
 16 49  1  0
 20 50  1  0
 20 51  1  0
 22 52  1  0
 23 53  1  0
 24 54  1  0
 25 55  1  0
 26 56  1  0
 27 57  1  0
 28 58  1  0
 30 59  1  0
 31 60  1  0
 32 61  1  0
 33 62  1  0
 35 63  1  0
 35 64  1  0
 35 65  1  0
 36 66  1  0
 36 67  1  0
 36 68  1  0
 37 69  1  0
 38 70  1  0
 39 71  1  0
 40 72  1  0
 41 73  1  0
 42 74  1  0
 43 75  1  0
 44 76  1  0
 45 77  1  0
M  END
> <Name>
Molecule

> <Clean Energy>
69.6471

> <From>
www.bindingDB.org

> <BindingDB Reactant_set_id>
50154588

> <Ligand InChI>
InChI=1S/C39H32O5S/c1-39(2)43-32-21-12-26(23-33(32)44-39)24-36-37(31-10-6-7-11-35(31)45-36)29-15-13-27(14-16-29)28-17-19-30(20-18-28)42-34(38(40)41)22-25-8-4-3-5-9-25/h3-21,23,34H,22,24H2,1-2H3,(H,40,
41)

> <Ligand InChI Key>
RMIUMNASYHPGOQ-UHFFFAOYSA-N

> <BindingDB MonomerID>
50086906

> <BindingDB Ligand Name>
2-{4'-[2-(2,2-Dimethyl-benzo[1,3]dioxol-5-ylmethyl)-benzo[b]thiophen-3-yl]-biphenyl-4-yloxy}-3-phenyl-propionic acid::CHEMBL26123

> <Target Name>
Tyrosine-protein phosphatase non-receptor type 1

> <Target Source Organism According to Curator or DataSource>
Homo sapiens

> <IC50 (nM)>
77

> <Curation/DataSource>
ChEMBL

> <Article DOI>
10.1021/jm990560c

> <BindingDB Entry DOI>
10.7270/Q2W958FT

> <PMID>
10753467

> <Authors>
Malamas, MS; Sredy, J; Moxham, C; Katz, A; Xu, W; McDevitt, R; Adebayo, FO; Sawicki, DR; Seestaller, L; Sullivan, D; Taylor, JR

> <Institution>
Wyeth-Ayerst Research

> <Link to Ligand in BindingDB>
http://www.bindingdb.org/bind/chemsearch/marvin/MolStructure.jsp?monomerid=50086906

> <Link to Ligand-Target Pair in BindingDB>
http://www.bindingdb.org/jsp/dbsearch/PrimarySearch_ki.jsp?energyterm=kJ/mole&tag=pol&polymerid=2622&target=Tyrosine-protein+phosphatase+non-receptor+type+1&column=ki&startPg=0&Increment=50&submit=Sea
rch
http://www.bindingdb.org/jsp/dbsearch/PrimarySearch_ki.jsp?energyterm=kJ/mole&tag=r21&monomerid=50086906&enzyme=Tyrosine-protein+phosphatase+non-receptor+type+1&column=ki&startPg=0&Increment=50&submit
=Search

> <PubChem CID of Ligand>
22462585

> <PubChem SID of Ligand>
103986017

> <ChEMBL ID of Ligand>
CHEMBL26123

> <ZINC ID of Ligand>
ZINC28755479

> <Number of Protein Chains in Target (bigger than 1 implies a multichain complex)>
1

> <BindingDB Target Chain Sequence>
MEMEKEFEQIDKSGSWAAIYQDIRHEASDFPCRVAKLPKNKNRNRYRDVSPFDHSRIKLHQEDNDYINASLIKMEEAQRSYILTQGPLPNTCGHFWEMVWEQKSRGVVMLNRVMEKGSLKCAQYWPQKEEKEMIFEDTNLKLTLISEDIKSYYTVRQLELENLTTQETREILHFHYTTWPDFGVPESPASFLNFLFKVRE
SGSLSPEHGPVVVHCSAGIGRSGTFCLADTCLLLMDKRKDPSSVDIKKVLLEMRKFRMGLIQTADQLRFSYLAVIEGAKFIMGDSSVQDQWKELSHEDLEPPPEHIPPPPRPPKRILEPHNGKCREFFPNHQWVKEETQEDKDCPIKEEKGSPLNAAPYGIESMSQDTEVRSRVVGGSLRGAQAASPAKGEPSLPEKDED
HALSYWKPFLVNMCVATVLTAGAYLCYRFLFNSNT

> <PDB ID(s) of Target Chain>
1BZJ,1G7G,1GFY,1JF7,1KAK,1KAV,1LQF,1NL9,1NNY,1NO6,1NZ7,1OEM,1OEO,1OES,1OET,1OEU,1OEV,1ONY,1ONZ,1PH0,1PXH,1PYN,1Q1M,1Q6J,1Q6M,1Q6N,1Q6P,1Q6S,1Q6T,1QXK,1SUG,1T48,1T49,1T4J,1WAX,1XBO,2AZR,2B07,2BGD,2BGE,
2CM2,2CM3,2CM7,2CM8,2CMA,2CMB,2CMC,2CNE,2CNF,2CNG,2CNH,2CNI,2F6T,2F6V,2F6W,2F6Y,2F6Z,2F70,2F71,2FJN,2H4G,2H4K,2HB1,2HNP,2HNQ,2QBP,2QBQ,2QBR,2QBS,2VEU,2VEV,2VEW,2VEX,2VEY,2ZMM,2ZN7,3A5J,3CWE,3D9C,3EAX,
3EB1,3EU0,3I7Z,3I80,3SME,4BJO,4I8N,4QBW,4Y14,5K9V,5K9W,5KA0,5KA1,5T19,6B90,6NTP,6W30,7KEY,7KLX,7LFO,7MN9,7MNA,8DU7,8G65,8G67,8G68,8G69,8G6A,8SKL

> <UniProt (SwissProt) Recommended Name of Target Chain>
Tyrosine-protein phosphatase non-receptor type 1

> <UniProt (SwissProt) Entry Name of Target Chain>
PTN1_HUMAN

> <UniProt (SwissProt) Primary ID of Target Chain>
P18031

> <UniProt (SwissProt) Secondary ID(s) of Target Chain>
Q5TGD8 Q9BQV9 Q9NQQ4

$$$$
Molecule
  SciTegic10242319433D

 57 61  0  0  0  0            999 V2000
    8.1854   -0.5075   -0.1457 C   0  0
    8.1441   -1.8835   -0.6636 C   0  0
    9.1967   -2.6894   -0.5191 C   0  0
   10.4080   -2.1924    0.1458 C   0  0
   10.4358   -0.9519    0.6152 C   0  0
    9.2840   -0.0919    0.4745 C   0  0
    6.9520    0.3873   -0.3589 C   0  0
   11.6370   -3.0439    0.3142 C   0  0  1  0  0  0
    6.7846    1.7894    0.4008 C   0  0  2  0  0  0
    5.4036    2.4116    0.2205 N   0  0
    7.9140    2.8216    0.1640 C   0  0
    9.1157    2.5037   -0.1218 N   0  0
    7.7710    4.2523    0.2982 N   0  0
    9.0520    4.7221    0.0702 C   0  0
    9.8715    3.6444   -0.1887 C   0  0
   11.1646    3.7451   -0.4247 C   0  0
   11.7483    5.0997   -0.4218 C   0  0
   10.9626    6.1604   -0.1797 C   0  0
    9.5132    5.9740    0.0900 C   0  0
   11.5556   -4.7458   -0.3664 S   0  0
   13.2738   -4.6126   -0.0222 N   0  0
   13.8342   -3.3488   -0.0032 C   0  0
   12.8810   -2.2880   -0.1371 C   0  0
   12.0935   -6.0962    0.0691 O   0  0
   10.4188   -5.0275    0.5957 O   0  0
   15.0416   -3.1461    0.1667 O   0  0
    4.1167    1.3635    0.8783 S   0  0
    2.4480    0.8981    0.4645 C   0  0
    4.2419    0.6008   -0.4234 O   0  0
    3.4248    2.6969    1.0941 O   0  0
    1.4257    1.7555    0.4906 C   0  0
    0.0737    1.2781    0.1197 C   0  0
   -0.1162    0.0080   -0.2347 C   0  0
    1.0037   -0.9204   -0.2574 C   0  0
    2.2185   -0.4974    0.0739 C   0  0
   -1.4074    2.4674    0.1339 Br  0  0
    7.2487   -2.2464   -1.1681 H   0  0
    9.1582   -3.7125   -0.8930 H   0  0
   11.3330   -0.5796    1.1097 H   0  0
    9.3169    0.9173    0.8851 H   0  0
    6.0859   -0.2149   -0.0844 H   0  0
    6.9166    0.6108   -1.4251 H   0  0
   11.7530   -3.1706    1.3906 H   0  0
    6.8460    1.5437    1.4610 H   0  0
    5.2261    2.5650   -0.8234 H   0  0
    6.8875    4.8135    0.5204 H   0  0
   11.7772    2.8637   -0.6141 H   0  0
   12.8119    5.2384   -0.6153 H   0  0
   11.3896    7.1633   -0.1808 H   0  0
    8.8575    6.8204    0.2944 H   0  0
   13.8677   -5.4824    0.1666 H   0  0
   13.1093   -1.4459    0.5163 H   0  0
   12.7980   -1.9381   -1.1661 H   0  0
    1.5837    2.7941    0.7813 H   0  0
   -1.1134   -0.3366   -0.5085 H   0  0
    0.8463   -1.9598   -0.5453 H   0  0
    3.0552   -1.1957    0.0553 H   0  0
 17 18  2  0
  9  7  1  0
 18 19  1  0
 19 14  2  0
  8 20  1  0
  4  5  2  0
  9 10  1  0
  2  3  2  0
  9 11  1  0
 20 21  1  0
 21 22  1  0
 22 23  1  0
  8 23  1  0
 11 12  2  0
 20 24  2  0
  5  6  1  0
 20 25  2  0
  6  1  2  0
 22 26  2  0
 12 15  1  0
 10 27  1  0
 14 13  1  0
 27 28  1  0
 13 11  1  0
 27 29  2  0
  1  2  1  0
 27 30  2  0
  1  7  1  0
 28 31  2  0
 14 15  1  0
 31 32  1  0
  3  4  1  0
 32 33  2  0
 15 16  2  0
 33 34  1  0
  4  8  1  0
 34 35  2  0
 35 28  1  0
 16 17  1  0
 32 36  1  0
  2 37  1  0
  3 38  1  0
  5 39  1  0
  6 40  1  0
  7 41  1  0
  7 42  1  0
  8 43  1  0
  9 44  1  0
 10 45  1  0
 13 46  1  0
 16 47  1  0
 17 48  1  0
 18 49  1  0
 19 50  1  0
 21 51  1  0
 23 52  1  0
 23 53  1  0
 31 54  1  0
 33 55  1  0
 34 56  1  0
 35 57  1  0
M  END
> <Name>
Molecule

> <Clean Energy>
224.644

> <From>
www.bindingDB.org

> <BindingDB Reactant_set_id>
50350916

> <Ligand InChI>
InChI=1S/C24H21BrN4O5S2/c25-17-4-3-5-18(13-17)35(31,32)28-21(24-26-19-6-1-2-7-20(19)27-24)12-15-8-10-16(11-9-15)22-14-23(30)29-36(22,33)34/h1-11,13,21-22,28H,12,14H2,(H,26,27)(H,29,30)

> <Ligand InChI Key>
JXPVTNZQUAWEBP-UHFFFAOYSA-N

> <BindingDB MonomerID>
50189637

> <BindingDB Ligand Name>
CHEMBL209107::N-{1-(1H-benzoimidazol-2-yl)-2-[4-(1,1,3-trioxo-1lambda*6*-isothiazolidin-5-yl)-phenyl]-ethyl}-3-bromo-benzenesulfonamide

> <Target Name>
Tyrosine-protein phosphatase non-receptor type 1

> <Target Source Organism According to Curator or DataSource>
Homo sapiens

> <IC50 (nM)>
77

> <Curation/DataSource>
ChEMBL

> <Article DOI>
10.1021/jm0600904

> <BindingDB Entry DOI>
10.7270/Q2JQ10M8

> <PMID>
16789735

> <Authors>
Combs, AP; Zhu, W; Crawley, ML; Glass, B; Polam, P; Sparks, RB; Modi, D; Takvorian, A; McLaughlin, E; Yue, EW; Wasserman, Z; Bower, M; Wei, M; Rupar, M; Ala, PJ; Reid, BM; Ellis, D; Gonneville, L; Emm
, T; Taylor, N; Yeleswaram, S; Li, Y; Wynn, R; Burn, TC; Hollis, G; Liu, PC; Metcalf, B

> <Institution>
Incyte Corporation

> <Link to Ligand in BindingDB>
http://www.bindingdb.org/bind/chemsearch/marvin/MolStructure.jsp?monomerid=50189637

> <Link to Ligand-Target Pair in BindingDB>
http://www.bindingdb.org/jsp/dbsearch/PrimarySearch_ki.jsp?energyterm=kJ/mole&tag=pol&polymerid=2622&target=Tyrosine-protein+phosphatase+non-receptor+type+1&column=ki&startPg=0&Increment=50&submit=Sea
rch
http://www.bindingdb.org/jsp/dbsearch/PrimarySearch_ki.jsp?energyterm=kJ/mole&tag=r21&monomerid=50189637&enzyme=Tyrosine-protein+phosphatase+non-receptor+type+1&column=ki&startPg=0&Increment=50&submit
=Search

> <PubChem CID of Ligand>
21879487

> <PubChem SID of Ligand>
104073158

> <ChEMBL ID of Ligand>
CHEMBL209107

> <ZINC ID of Ligand>
ZINC36088820

> <Number of Protein Chains in Target (bigger than 1 implies a multichain complex)>
1

> <BindingDB Target Chain Sequence>
MEMEKEFEQIDKSGSWAAIYQDIRHEASDFPCRVAKLPKNKNRNRYRDVSPFDHSRIKLHQEDNDYINASLIKMEEAQRSYILTQGPLPNTCGHFWEMVWEQKSRGVVMLNRVMEKGSLKCAQYWPQKEEKEMIFEDTNLKLTLISEDIKSYYTVRQLELENLTTQETREILHFHYTTWPDFGVPESPASFLNFLFKVRE
SGSLSPEHGPVVVHCSAGIGRSGTFCLADTCLLLMDKRKDPSSVDIKKVLLEMRKFRMGLIQTADQLRFSYLAVIEGAKFIMGDSSVQDQWKELSHEDLEPPPEHIPPPPRPPKRILEPHNGKCREFFPNHQWVKEETQEDKDCPIKEEKGSPLNAAPYGIESMSQDTEVRSRVVGGSLRGAQAASPAKGEPSLPEKDED
HALSYWKPFLVNMCVATVLTAGAYLCYRFLFNSNT

> <PDB ID(s) of Target Chain>
1BZJ,1G7G,1GFY,1JF7,1KAK,1KAV,1LQF,1NL9,1NNY,1NO6,1NZ7,1OEM,1OEO,1OES,1OET,1OEU,1OEV,1ONY,1ONZ,1PH0,1PXH,1PYN,1Q1M,1Q6J,1Q6M,1Q6N,1Q6P,1Q6S,1Q6T,1QXK,1SUG,1T48,1T49,1T4J,1WAX,1XBO,2AZR,2B07,2BGD,2BGE,
2CM2,2CM3,2CM7,2CM8,2CMA,2CMB,2CMC,2CNE,2CNF,2CNG,2CNH,2CNI,2F6T,2F6V,2F6W,2F6Y,2F6Z,2F70,2F71,2FJN,2H4G,2H4K,2HB1,2HNP,2HNQ,2QBP,2QBQ,2QBR,2QBS,2VEU,2VEV,2VEW,2VEX,2VEY,2ZMM,2ZN7,3A5J,3CWE,3D9C,3EAX,
3EB1,3EU0,3I7Z,3I80,3SME,4BJO,4I8N,4QBW,4Y14,5K9V,5K9W,5KA0,5KA1,5T19,6B90,6NTP,6W30,7KEY,7KLX,7LFO,7MN9,7MNA,8DU7,8G65,8G67,8G68,8G69,8G6A,8SKL

> <UniProt (SwissProt) Recommended Name of Target Chain>
Tyrosine-protein phosphatase non-receptor type 1

> <UniProt (SwissProt) Entry Name of Target Chain>
PTN1_HUMAN

> <UniProt (SwissProt) Primary ID of Target Chain>
P18031

> <UniProt (SwissProt) Secondary ID(s) of Target Chain>
Q5TGD8 Q9BQV9 Q9NQQ4

$$$$
Molecule
  SciTegic10242319433D

 72 77  0  0  0  0            999 V2000
   11.0319  -16.1218   -0.1515 C   0  0
   10.3060  -17.4031    0.0744 C   0  0
   11.0599  -18.4852    0.3098 C   0  0
   12.5033  -18.4312    0.3383 C   0  0
   13.1443  -17.2946    0.1286 C   0  0
   12.3709  -16.0696   -0.1327 C   0  0
   14.6187  -17.3223    0.1269 C   0  0
   15.2895  -18.5853    0.4492 C   0  0
   16.6159  -18.6807    0.4076 C   0  0
   17.4344  -17.5204    0.0218 C   0  0
   16.8203  -16.3620   -0.2464 C   0  0
   15.3444  -16.2537   -0.1907 C   0  0
    8.7233  -17.5023    0.0432 C   0  0
    6.3065  -18.2390    0.0053 S   0  0
    7.9689  -18.6457    0.0497 C   0  0
    6.4170  -16.6071   -0.0235 C   0  0
    7.7977  -16.2410   -0.0081 C   0  0
    8.1432  -14.9643   -0.0202 C   0  0
    7.0736  -13.9362   -0.0567 C   0  0
    5.7840  -14.2997   -0.0713 C   0  0
    5.4235  -15.7229   -0.0532 C   0  0
   18.8723  -17.5834   -0.1203 O   0  0
    8.4942  -20.1130    0.0785 C   0  0
   19.5731  -18.8828    0.0684 C   0  0  2  0  0  0
   21.1217  -18.5843   -0.0962 C   0  0
   22.1248  -19.7352    0.1239 C   0  0
   21.8088  -20.8499    0.7880 C   0  0
   22.8066  -21.9158    0.9638 C   0  0
   24.0351  -21.7724    0.4692 C   0  0
   24.3929  -20.5488   -0.2460 C   0  0
   23.4891  -19.5832   -0.4087 C   0  0
   19.1317  -19.9363   -0.9889 C   0  0
   18.2103  -19.6815   -1.7715 O   0  0
   19.7209  -21.1911   -1.0546 O   0  0
    7.5266  -21.2898    0.0495 C   0  0
    6.2019  -21.1505    0.0341 C   0  0
    5.3355  -22.3353    0.0103 C   0  0
    5.8698  -23.5588    0.0034 C   0  0
    7.3203  -23.7110    0.0184 C   0  0
    8.1037  -22.6367    0.0405 C   0  0
    5.0605  -24.7085   -0.0168 O   0  0
    3.6658  -24.3720   -0.0260 C   0  0
   10.4635  -15.2101   -0.3353 H   0  0
   10.5664  -19.4409    0.4863 H   0  0
   13.0714  -19.3403    0.5354 H   0  0
   12.8847  -15.1249   -0.3101 H   0  0
   14.6950  -19.4559    0.7261 H   0  0
   17.0992  -19.6243    0.6609 H   0  0
   17.4143  -15.4866   -0.5092 H   0  0
   14.8557  -15.3041   -0.4087 H   0  0
    9.1934  -14.6729   -0.0037 H   0  0
    7.3387  -12.8790   -0.0718 H   0  0
    5.0032  -13.5395   -0.0965 H   0  0
    4.3815  -16.0427   -0.0638 H   0  0
    9.1469  -20.2263   -0.7872 H   0  0
    9.0802  -20.2153    0.9918 H   0  0
   19.3770  -19.2637    1.0707 H   0  0
   21.2716  -18.2178   -1.1117 H   0  0
   21.3743  -17.7981    0.6154 H   0  0
   20.8074  -20.9701    1.2013 H   0  0
   22.5401  -22.8262    1.5007 H   0  0
   24.7717  -22.5655    0.5974 H   0  0
   25.3993  -20.4262   -0.6463 H   0  0
   23.7623  -18.6722   -0.9411 H   0  0
   20.7494  -21.0862   -1.2382 H   0  0
    5.7601  -20.1541    0.0392 H   0  0
    4.2521  -22.2157   -0.0018 H   0  0
    7.7630  -24.7071    0.0115 H   0  0
    9.1867  -22.7593    0.0522 H   0  0
    3.0712  -25.2853   -0.0415 H   0  0
    3.4408  -23.7775   -0.9115 H   0  0
    3.4243  -23.7971    0.8681 H   0  0
 19 20  2  0
  2  3  2  0
 20 21  1  0
 21 16  2  0
 10 11  2  0
 10 22  1  0
  5  6  1  0
 15 23  1  0
 11 12  1  0
 24 22  1  0
 12  7  2  0
 24 25  1  0
  5  7  1  0
 25 26  1  0
 13 17  1  0
 26 27  2  0
  6  1  2  0
 27 28  1  0
  1  2  1  0
 28 29  2  0
  3  4  1  0
 29 30  1  0
 16 14  1  0
 30 31  2  0
 31 26  1  0
 14 15  1  0
 24 32  1  0
 15 13  2  0
 32 33  2  0
  2 13  1  0
 32 34  1  0
  7  8  1  0
 23 35  1  0
 35 36  2  0
 16 17  1  0
 36 37  1  0
  8  9  2  0
 37 38  2  0
 17 18  2  0
 38 39  1  0
  4  5  2  0
 39 40  2  0
 40 35  1  0
 18 19  1  0
 38 41  1  0
  9 10  1  0
 41 42  1  0
  1 43  1  0
  3 44  1  0
  4 45  1  0
  6 46  1  0
  8 47  1  0
  9 48  1  0
 11 49  1  0
 12 50  1  0
 18 51  1  0
 19 52  1  0
 20 53  1  0
 21 54  1  0
 23 55  1  0
 23 56  1  0
 24 57  1  0
 25 58  1  0
 25 59  1  0
 27 60  1  0
 28 61  1  0
 29 62  1  0
 30 63  1  0
 31 64  1  0
 34 65  1  0
 36 66  1  0
 37 67  1  0
 39 68  1  0
 40 69  1  0
 42 70  1  0
 42 71  1  0
 42 72  1  0
M  END
> <Name>
Molecule

> <Clean Energy>
53.7135

> <From>
www.bindingDB.org

> <BindingDB Reactant_set_id>
51015881

> <Ligand InChI>
InChI=1S/C37H30O4S/c1-40-30-19-11-26(12-20-30)24-35-36(32-9-5-6-10-34(32)42-35)29-15-13-27(14-16-29)28-17-21-31(22-18-28)41-33(37(38)39)23-25-7-3-2-4-8-25/h2-22,33H,23-24H2,1H3,(H,38,39)/t33-/m1/s1

> <Ligand InChI Key>
RPKFDAKJPCPGAN-MGBGTMOVSA-N

> <BindingDB MonomerID>
50416038

> <BindingDB Ligand Name>
CHEMBL1083272

> <Target Name>
Tyrosine-protein phosphatase non-receptor type 1

> <Target Source Organism According to Curator or DataSource>
Homo sapiens

> <IC50 (nM)>
77.62

> <Curation/DataSource>
ChEMBL

> <Article DOI>
10.1016/j.bmcl.2010.04.033

> <BindingDB Entry DOI>
10.7270/Q27D2WCC

> <PMID>
20452766

> <Authors>
Cheng, Y; Zhou, M; Tung, CH; Ji, M; Zhang, F

> <Institution>
Tsinghua University

> <Link to Ligand in BindingDB>
http://www.bindingdb.org/bind/chemsearch/marvin/MolStructure.jsp?monomerid=50416038

> <Link to Ligand-Target Pair in BindingDB>
http://www.bindingdb.org/jsp/dbsearch/PrimarySearch_ki.jsp?energyterm=kJ/mole&tag=pol&polymerid=2622&target=Tyrosine-protein+phosphatase+non-receptor+type+1&column=ki&startPg=0&Increment=50&submit=Sea
rch
http://www.bindingdb.org/jsp/dbsearch/PrimarySearch_ki.jsp?energyterm=kJ/mole&tag=r21&monomerid=50416038&enzyme=Tyrosine-protein+phosphatase+non-receptor+type+1&column=ki&startPg=0&Increment=50&submit
=Search

> <PubChem CID of Ligand>
9959737

> <PubChem SID of Ligand>
163365062

> <ChEMBL ID of Ligand>
CHEMBL1083272

> <ZINC ID of Ligand>
ZINC28757821

> <Number of Protein Chains in Target (bigger than 1 implies a multichain complex)>
1

> <BindingDB Target Chain Sequence>
MEMEKEFEQIDKSGSWAAIYQDIRHEASDFPCRVAKLPKNKNRNRYRDVSPFDHSRIKLHQEDNDYINASLIKMEEAQRSYILTQGPLPNTCGHFWEMVWEQKSRGVVMLNRVMEKGSLKCAQYWPQKEEKEMIFEDTNLKLTLISEDIKSYYTVRQLELENLTTQETREILHFHYTTWPDFGVPESPASFLNFLFKVRE
SGSLSPEHGPVVVHCSAGIGRSGTFCLADTCLLLMDKRKDPSSVDIKKVLLEMRKFRMGLIQTADQLRFSYLAVIEGAKFIMGDSSVQDQWKELSHEDLEPPPEHIPPPPRPPKRILEPHNGKCREFFPNHQWVKEETQEDKDCPIKEEKGSPLNAAPYGIESMSQDTEVRSRVVGGSLRGAQAASPAKGEPSLPEKDED
HALSYWKPFLVNMCVATVLTAGAYLCYRFLFNSNT

> <PDB ID(s) of Target Chain>
1BZJ,1G7G,1GFY,1JF7,1KAK,1KAV,1LQF,1NL9,1NNY,1NO6,1NZ7,1OEM,1OEO,1OES,1OET,1OEU,1OEV,1ONY,1ONZ,1PH0,1PXH,1PYN,1Q1M,1Q6J,1Q6M,1Q6N,1Q6P,1Q6S,1Q6T,1QXK,1SUG,1T48,1T49,1T4J,1WAX,1XBO,2AZR,2B07,2BGD,2BGE,
2CM2,2CM3,2CM7,2CM8,2CMA,2CMB,2CMC,2CNE,2CNF,2CNG,2CNH,2CNI,2F6T,2F6V,2F6W,2F6Y,2F6Z,2F70,2F71,2FJN,2H4G,2H4K,2HB1,2HNP,2HNQ,2QBP,2QBQ,2QBR,2QBS,2VEU,2VEV,2VEW,2VEX,2VEY,2ZMM,2ZN7,3A5J,3CWE,3D9C,3EAX,
3EB1,3EU0,3I7Z,3I80,3SME,4BJO,4I8N,4QBW,4Y14,5K9V,5K9W,5KA0,5KA1,5T19,6B90,6NTP,6W30,7KEY,7KLX,7LFO,7MN9,7MNA,8DU7,8G65,8G67,8G68,8G69,8G6A,8SKL

> <UniProt (SwissProt) Recommended Name of Target Chain>
Tyrosine-protein phosphatase non-receptor type 1

> <UniProt (SwissProt) Entry Name of Target Chain>
PTN1_HUMAN

> <UniProt (SwissProt) Primary ID of Target Chain>
P18031

> <UniProt (SwissProt) Secondary ID(s) of Target Chain>
Q5TGD8 Q9BQV9 Q9NQQ4

$$$$
Molecule
  SciTegic10242319433D

124132  0  0  0  0            999 V2000
   35.7541  -10.3331    1.4614 O   0  0
   35.1646   -9.7397    0.1977 S   0  0
   35.7853  -10.5846   -0.8995 O   0  0
   28.7314   -9.9026   -1.4002 O   0  0
   29.3304   -9.3108   -0.1394 S   0  0
   28.4900   -9.9330    0.9599 O   0  0
   36.2030   -3.3144   -1.4711 O   0  0
   35.6161   -3.8878   -0.1878 S   0  0
   36.4644   -3.2581    0.8917 O   0  0
   29.1710   -2.6404   -1.0486 O   0  0
   29.8113   -3.4247    0.0815 S   0  0
   29.1819   -2.8165    1.3193 O   0  0
   24.6075   -3.3862    0.0436 C   0  0
   24.5299   -5.0045    0.3749 P   0  0
   24.9292   -5.2192    1.6787 O   0  0
   29.2564  -14.5665    0.0001 C   0  0
   30.8746  -14.6366   -0.3244 P   0  0
   31.0882  -14.2652   -1.6364 O   0  0
   40.3640   -9.7971    0.0227 C   0  0
   40.4457   -8.1746    0.3215 P   0  0
   40.0517   -7.9292    1.6218 O   0  0
   35.6880    1.4449   -0.0124 C   0  0
   34.0706    1.4905   -0.3435 P   0  0
   33.8670    1.1107   -1.6550 O   0  0
   27.5633   -7.4052   -0.3782 C   0  0
   28.8654   -7.5541   -0.1525 C   0  0
   29.7200   -6.3084    0.0458 C   0  0
   29.1167   -5.1031   -0.0643 C   0  0
   27.6785   -5.0530   -0.2977 C   0  0
   26.9346   -6.1284   -0.4364 C   0  0
   35.9235   -8.1003   -0.0007 C   0  0
   37.2258   -8.1849   -0.2529 C   0  0
   38.0421   -7.0474   -0.4828 C   0  0
   37.4800   -5.8523   -0.4697 C   0  0
   36.0568   -5.6555   -0.1948 C   0  0
   35.2919   -6.7330    0.0882 C   0  0
   31.6861   -1.5977    0.3627 C   0  0
   31.5465   -2.8954    0.0959 C   0  0
   32.7745   -3.7234   -0.1293 C   0  0
   33.9803   -3.1356   -0.0144 C   0  0
   34.0506   -1.6972    0.2684 C   0  0
   32.9719   -0.9564    0.4242 C   0  0
   30.9609  -10.0710    0.0377 C   0  0
   30.8754  -11.3820    0.2557 C   0  0
   32.0181  -12.2043    0.4540 C   0  0
   33.2117  -11.6344    0.4487 C   0  0
   33.4036  -10.1995    0.2005 C   0  0
   32.3225   -9.4275   -0.0271 C   0  0
   31.0233   -6.4077    0.3250 O   0  0
   32.6697   -5.0038   -0.4690 O   0  0
   32.4478   -8.1330   -0.3205 O   0  0
   34.0086   -6.6066    0.4287 O   0  0
   33.0113    0.5679    0.6411 C   0  0
   33.6554    2.9770   -0.1958 O   0  0
   39.5598   -7.1246   -0.6987 C   0  0
   41.9411   -7.7943    0.1801 O   0  0
   31.9478  -13.7304    0.6570 C   0  0
   31.2662  -16.1286   -0.1692 O   0  0
   25.4130   -6.0792   -0.6211 C   0  0
   23.0350   -5.3916    0.2474 O   0  0
   25.7484   -2.7006    0.0401 C   0  0
   25.7551   -1.2634   -0.2301 C   0  0
   24.6102   -0.6240   -0.4559 C   0  0
   23.3492   -1.3629   -0.4371 C   0  0
   23.3487   -2.6737   -0.2029 C   0  0
   36.3936    0.3166    0.0028 C   0  0
   37.8332    0.3443    0.2736 C   0  0
   38.4499    1.5044    0.4894 C   0  0
   37.6870    2.7501    0.4595 C   0  0
   36.3768    2.7216    0.2239 C   0  0
   39.2235  -10.4817    0.0465 C   0  0
   39.2123  -11.9230   -0.1990 C   0  0
   40.3535  -12.5666   -0.4308 C   0  0
   41.6148  -11.8283   -0.4424 C   0  0
   41.6191  -10.5138   -0.2297 C   0  0
   28.5689  -13.4277    0.0212 C   0  0
   27.1274  -13.4336    0.2827 C   0  0
   26.4902  -14.5851    0.4837 C   0  0
   27.2330  -15.8428    0.4476 C   0  0
   28.5451  -15.8337    0.2207 C   0  0
   26.9525   -8.2961   -0.5245 H   0  0
   27.1967   -4.0772   -0.3603 H   0  0
   37.6871   -9.1719   -0.2846 H   0  0
   38.1005   -4.9791   -0.6714 H   0  0
   30.7924   -0.9997    0.5411 H   0  0
   35.0294   -1.2251    0.3527 H   0  0
   29.8884  -11.8438    0.2831 H   0  0
   34.0882  -12.2545    0.6361 H   0  0
   31.1501   -6.9370    1.2230 H   0  0
   32.1523   -5.5244    0.2818 H   0  0
   32.9350   -7.6403    0.4684 H   0  0
   33.9326   -6.0245    1.2993 H   0  0
   32.0024    0.9456    0.4753 H   0  0
   33.2988    0.7409    1.6782 H   0  0
   33.8542    3.3008    0.7830 H   0  0
   39.7281   -7.4476   -1.7260 H   0  0
   39.9612   -6.1204   -0.5625 H   0  0
   42.5086   -8.3387    0.8760 H   0  0
   32.9498  -14.1241    0.4865 H   0  0
   31.6601  -13.9042    1.6939 H   0  0
   31.0583  -16.4455    0.8100 H   0  0
   25.2190   -5.7984   -1.6563 H   0  0
   25.0295   -7.0830   -0.4384 H   0  0
   22.4690   -4.8351    0.9348 H   0  0
   26.6877   -3.2159    0.2409 H   0  0
   26.6976   -0.7162   -0.2465 H   0  0
   24.6127    0.4478   -0.6544 H   0  0
   22.4091   -0.8407   -0.6149 H   0  0
   22.4063   -3.2214   -0.1942 H   0  0
   35.8970   -0.6348   -0.1875 H   0  0
   38.4002   -0.5863    0.2984 H   0  0
   39.5215    1.5247    0.6879 H   0  0
   38.1899    3.7020    0.6300 H   0  0
   35.8104    3.6527    0.2060 H   0  0
   38.2872   -9.9625    0.2512 H   0  0
   38.2695  -12.4699   -0.1921 H   0  0
   40.3478  -13.6415   -0.6115 H   0  0
   42.5521  -12.3537   -0.6252 H   0  0
   42.5616   -9.9664   -0.2433 H   0  0
   29.0821  -12.4828   -0.1575 H   0  0
   26.5758  -12.4939    0.3127 H   0  0
   25.4170  -14.5897    0.6748 H   0  0
   26.7135  -16.7878    0.6063 H   0  0
   29.0962  -16.7738    0.1984 H   0  0
  2  1  2  0
  3  2  2  0
  5  4  2  0
  6  5  2  0
  8  7  2  0
  9  8  2  0
 11 10  2  0
 12 11  2  0
 14 13  1  0
 15 14  2  0
 17 16  1  0
 18 17  2  0
 20 19  1  0
 21 20  2  0
 23 22  1  0
 24 23  2  0
 25 26  2  0
 26 27  1  0
 27 28  2  0
 28 29  1  0
 29 30  2  0
 30 25  1  0
 31 32  2  0
 32 33  1  0
 33 34  2  0
 34 35  1  0
 35 36  2  0
 36 31  1  0
 37 38  2  0
 38 39  1  0
 39 40  2  0
 40 41  1  0
 41 42  2  0
 42 37  1  0
 40  8  1  0
  8 35  1  0
 38 11  1  0
 11 28  1  0
 26  5  1  0
  5 43  1  0
 43 44  2  0
 44 45  1  0
 45 46  2  0
 46 47  1  0
 47 48  2  0
 48 43  1  0
 47  2  1  0
  2 31  1  0
 27 49  1  0
 39 50  1  0
 48 51  1  0
 36 52  1  0
 42 53  1  0
 53 23  1  0
 23 54  1  0
 33 55  1  0
 55 20  1  0
 20 56  1  0
 45 57  1  0
 57 17  1  0
 17 58  1  0
 30 59  1  0
 59 14  1  0
 14 60  1  0
 13 61  2  0
 61 62  1  0
 62 63  2  0
 63 64  1  0
 64 65  2  0
 65 13  1  0
 22 66  2  0
 66 67  1  0
 67 68  2  0
 68 69  1  0
 69 70  2  0
 70 22  1  0
 19 71  2  0
 71 72  1  0
 72 73  2  0
 73 74  1  0
 74 75  2  0
 75 19  1  0
 16 76  2  0
 76 77  1  0
 77 78  2  0
 78 79  1  0
 79 80  2  0
 80 16  1  0
 25 81  1  0
 29 82  1  0
 32 83  1  0
 34 84  1  0
 37 85  1  0
 41 86  1  0
 44 87  1  0
 46 88  1  0
 49 89  1  0
 50 90  1  0
 51 91  1  0
 52 92  1  0
 53 93  1  0
 53 94  1  0
 54 95  1  0
 55 96  1  0
 55 97  1  0
 56 98  1  0
 57 99  1  0
 57100  1  0
 58101  1  0
 59102  1  0
 59103  1  0
 60104  1  0
 61105  1  0
 62106  1  0
 63107  1  0
 64108  1  0
 65109  1  0
 66110  1  0
 67111  1  0
 68112  1  0
 69113  1  0
 70114  1  0
 71115  1  0
 72116  1  0
 73117  1  0
 74118  1  0
 75119  1  0
 76120  1  0
 77121  1  0
 78122  1  0
 79123  1  0
 80124  1  0
M  END
> <Name>
Molecule

> <Clean Energy>
175.735

> <From>
www.bindingDB.org

> <BindingDB Reactant_set_id>
51310645

> <Ligand InChI>
InChI=1S/C52H44O20P4S4/c53-49-41-21-33(29-73(57,58)37-13-5-1-6-14-37)22-42(49)78(67,68)44-24-35(31-75(61,62)39-17-9-3-10-18-39)26-46(51(44)55)80(71,72)48-28-36(32-76(63,64)40-19-11-4-12-20-40)27-47(52
(48)56)79(69,70)45-25-34(23-43(50(45)54)77(41,65)66)30-74(59,60)38-15-7-2-8-16-38/h1-28,53-56H,29-32H2,(H,57,58)(H,59,60)(H,61,62)(H,63,64)

> <Ligand InChI Key>
JNCPSODLWJEFQC-UHFFFAOYSA-N

> <BindingDB MonomerID>
50531902

> <BindingDB Ligand Name>
CHEMBL4569405

> <Target Name>
Tyrosine-protein phosphatase non-receptor type 1

> <Target Source Organism According to Curator or DataSource>
Homo sapiens

> <IC50 (nM)>
79

> <Curation/DataSource>
ChEMBL

> <Article DOI>
10.1016/j.bmcl.2019.01.026

> <BindingDB Entry DOI>
10.7270/Q2NC64P6

> <PMID>
30704811

> <Authors>
Buldenko, VM; Trush, VV; Kobzar, OL; Drapailo, AB; Kalchenko, VI; Vovk, AI

> <Institution>
V.P. Kukhar Institute of Bioorganic Chemistry and Petrochemistry of the National Academy of Sciences of Ukraine

> <Link to Ligand in BindingDB>
http://www.bindingdb.org/bind/chemsearch/marvin/MolStructure.jsp?monomerid=50531902

> <Link to Ligand-Target Pair in BindingDB>
http://www.bindingdb.org/jsp/dbsearch/PrimarySearch_ki.jsp?energyterm=kJ/mole&tag=pol&polymerid=2622&target=Tyrosine-protein+phosphatase+non-receptor+type+1&column=ki&startPg=0&Increment=50&submit=Sea
rch
http://www.bindingdb.org/jsp/dbsearch/PrimarySearch_ki.jsp?energyterm=kJ/mole&tag=r21&monomerid=50531902&enzyme=Tyrosine-protein+phosphatase+non-receptor+type+1&column=ki&startPg=0&Increment=50&submit
=Search

> <PubChem CID of Ligand>
155560770

> <PubChem SID of Ligand>
440740484

> <Number of Protein Chains in Target (bigger than 1 implies a multichain complex)>
1

> <BindingDB Target Chain Sequence>
MEMEKEFEQIDKSGSWAAIYQDIRHEASDFPCRVAKLPKNKNRNRYRDVSPFDHSRIKLHQEDNDYINASLIKMEEAQRSYILTQGPLPNTCGHFWEMVWEQKSRGVVMLNRVMEKGSLKCAQYWPQKEEKEMIFEDTNLKLTLISEDIKSYYTVRQLELENLTTQETREILHFHYTTWPDFGVPESPASFLNFLFKVRE
SGSLSPEHGPVVVHCSAGIGRSGTFCLADTCLLLMDKRKDPSSVDIKKVLLEMRKFRMGLIQTADQLRFSYLAVIEGAKFIMGDSSVQDQWKELSHEDLEPPPEHIPPPPRPPKRILEPHNGKCREFFPNHQWVKEETQEDKDCPIKEEKGSPLNAAPYGIESMSQDTEVRSRVVGGSLRGAQAASPAKGEPSLPEKDED
HALSYWKPFLVNMCVATVLTAGAYLCYRFLFNSNT

> <PDB ID(s) of Target Chain>
1BZJ,1G7G,1GFY,1JF7,1KAK,1KAV,1LQF,1NL9,1NNY,1NO6,1NZ7,1OEM,1OEO,1OES,1OET,1OEU,1OEV,1ONY,1ONZ,1PH0,1PXH,1PYN,1Q1M,1Q6J,1Q6M,1Q6N,1Q6P,1Q6S,1Q6T,1QXK,1SUG,1T48,1T49,1T4J,1WAX,1XBO,2AZR,2B07,2BGD,2BGE,
2CM2,2CM3,2CM7,2CM8,2CMA,2CMB,2CMC,2CNE,2CNF,2CNG,2CNH,2CNI,2F6T,2F6V,2F6W,2F6Y,2F6Z,2F70,2F71,2FJN,2H4G,2H4K,2HB1,2HNP,2HNQ,2QBP,2QBQ,2QBR,2QBS,2VEU,2VEV,2VEW,2VEX,2VEY,2ZMM,2ZN7,3A5J,3CWE,3D9C,3EAX,
3EB1,3EU0,3I7Z,3I80,3SME,4BJO,4I8N,4QBW,4Y14,5K9V,5K9W,5KA0,5KA1,5T19,6B90,6NTP,6W30,7KEY,7KLX,7LFO,7MN9,7MNA,8DU7,8G65,8G67,8G68,8G69,8G6A,8SKL

> <UniProt (SwissProt) Recommended Name of Target Chain>
Tyrosine-protein phosphatase non-receptor type 1

> <UniProt (SwissProt) Entry Name of Target Chain>
PTN1_HUMAN

> <UniProt (SwissProt) Primary ID of Target Chain>
P18031

> <UniProt (SwissProt) Secondary ID(s) of Target Chain>
Q5TGD8 Q9BQV9 Q9NQQ4

$$$$
Molecule
  SciTegic10242319433D

 57 61  0  0  0  0            999 V2000
   -1.8416  -18.3414   -0.1140 C   0  0
   -1.9785  -19.7851   -0.2740 C   0  0
   -0.9165  -20.5772   -0.1407 C   0  0
    0.4156  -20.0104    0.1490 C   0  0
    0.5264  -18.6988    0.3020 C   0  0
   -0.6418  -17.8530    0.1786 C   0  0
   -3.0888  -17.4542   -0.3705 C   0  0
    1.6931  -20.8589    0.1629 C   0  0  2  0  0  0
   -3.3012  -15.9979    0.2923 C   0  0  2  0  0  0
   -4.6500  -15.3939   -0.0768 N   0  0
   -2.1668  -14.9597    0.0829 C   0  0
   -0.9374  -15.2712   -0.0572 N   0  0
   -2.3325  -13.5254    0.0963 N   0  0
   -1.0335  -13.0512   -0.0422 C   0  0
   -0.1940  -14.1353   -0.1400 C   0  0
    1.1202  -14.0402   -0.2632 C   0  0
    1.6956  -12.6866   -0.3079 C   0  0
    0.8879  -11.6187   -0.2184 C   0  0
   -0.5827  -11.8005   -0.0722 C   0  0
    1.6893  -22.5350    0.9360 S   0  0
    3.3806  -22.4352    0.4793 N   0  0
    3.9256  -21.1566    0.3712 C   0  0
    2.9575  -20.0806    0.5236 C   0  0
    2.0207  -23.9005    0.3657 O   0  0
    0.4534  -22.8267    0.1220 O   0  0
    5.1139  -20.9500    0.0937 O   0  0
   -6.0833  -16.0015    0.8330 S   0  0
   -7.6492  -16.7691    0.4039 C   0  0
   -5.6585  -17.4152    0.5178 O   0  0
   -6.7566  -14.9620   -0.0443 O   0  0
   -8.7575  -16.0348    0.2886 C   0  0
  -10.0409  -16.6820   -0.0273 C   0  0
  -10.1003  -18.0022   -0.1947 C   0  0
   -8.8879  -18.8101   -0.0689 C   0  0
   -7.7247  -18.2271    0.2160 C   0  0
  -11.4782  -15.7335   -0.1712 Cl  0  0
  -11.6112  -18.7616   -0.5561 Cl  0  0
   -2.9529  -20.2164   -0.5033 H   0  0
   -1.0319  -21.6559   -0.2467 H   0  0
    1.4982  -18.2564    0.5209 H   0  0
   -0.5331  -16.7792    0.3309 H   0  0
   -3.9466  -18.0503   -0.0592 H   0  0
   -3.1260  -17.2984   -1.4486 H   0  0
    1.8431  -21.0829   -0.8932 H   0  0
   -3.3435  -16.1704    1.3677 H   0  0
   -4.8190  -15.5878   -1.1154 H   0  0
   -3.2378  -12.9628    0.1902 H   0  0
    1.7501  -14.9273   -0.3287 H   0  0
    2.7721  -12.5520   -0.4131 H   0  0
    1.3101  -10.6144   -0.2529 H   0  0
   -1.2579  -10.9484    0.0065 H   0  0
    3.9646  -23.3121    0.2930 H   0  0
    2.9267  -19.6977    1.5436 H   0  0
    3.1449  -19.2591   -0.1679 H   0  0
   -8.7121  -14.9547    0.4284 H   0  0
   -8.9361  -19.8900   -0.2085 H   0  0
   -6.8236  -18.8330    0.3106 H   0  0
 17 18  2  0
  9  7  1  0
 18 19  1  0
 19 14  2  0
  8 20  1  0
  4  5  2  0
  9 10  1  0
  2  3  2  0
  9 11  1  0
 20 21  1  0
 21 22  1  0
 22 23  1  0
  8 23  1  0
 11 12  2  0
 20 24  2  0
  5  6  1  0
 20 25  2  0
  6  1  2  0
 22 26  2  0
 12 15  1  0
 10 27  1  0
 14 13  1  0
 27 28  1  0
 13 11  1  0
 27 29  2  0
  1  2  1  0
 27 30  2  0
  1  7  1  0
 28 31  2  0
 14 15  1  0
 31 32  1  0
  3  4  1  0
 32 33  2  0
 15 16  2  0
 33 34  1  0
  4  8  1  0
 34 35  2  0
 35 28  1  0
 16 17  1  0
 32 36  1  0
 33 37  1  0
  2 38  1  0
  3 39  1  0
  5 40  1  0
  6 41  1  0
  7 42  1  0
  7 43  1  0
  8 44  1  0
  9 45  1  0
 10 46  1  0
 13 47  1  0
 16 48  1  0
 17 49  1  0
 18 50  1  0
 19 51  1  0
 21 52  1  0
 23 53  1  0
 23 54  1  0
 31 55  1  0
 34 56  1  0
 35 57  1  0
M  END
> <Name>
Molecule

> <Clean Energy>
233.999

> <From>
www.bindingDB.org

> <BindingDB Reactant_set_id>
50350932

> <Ligand InChI>
InChI=1S/C24H20Cl2N4O5S2/c25-17-10-9-16(12-18(17)26)36(32,33)29-21(24-27-19-3-1-2-4-20(19)28-24)11-14-5-7-15(8-6-14)22-13-23(31)30-37(22,34)35/h1-10,12,21-22,29H,11,13H2,(H,27,28)(H,30,31)

> <Ligand InChI Key>
IUSRDUUOEWJJRX-UHFFFAOYSA-N

> <BindingDB MonomerID>
50189654

> <BindingDB Ligand Name>
CHEMBL210965::N-{1-(1H-benzoimidazol-2-yl)-2-[4-(1,1,3-trioxo-1lambda*6*-isothiazolidin-5-yl)-phenyl]-ethyl}-3,4-dichloro-benzenesulfonamide

> <Target Name>
Tyrosine-protein phosphatase non-receptor type 1

> <Target Source Organism According to Curator or DataSource>
Homo sapiens

> <IC50 (nM)>
79

> <Curation/DataSource>
ChEMBL

> <Article DOI>
10.1021/jm0600904

> <BindingDB Entry DOI>
10.7270/Q2JQ10M8

> <PMID>
16789735

> <Authors>
Combs, AP; Zhu, W; Crawley, ML; Glass, B; Polam, P; Sparks, RB; Modi, D; Takvorian, A; McLaughlin, E; Yue, EW; Wasserman, Z; Bower, M; Wei, M; Rupar, M; Ala, PJ; Reid, BM; Ellis, D; Gonneville, L; Emm
, T; Taylor, N; Yeleswaram, S; Li, Y; Wynn, R; Burn, TC; Hollis, G; Liu, PC; Metcalf, B

> <Institution>
Incyte Corporation

> <Link to Ligand in BindingDB>
http://www.bindingdb.org/bind/chemsearch/marvin/MolStructure.jsp?monomerid=50189654

> <Link to Ligand-Target Pair in BindingDB>
http://www.bindingdb.org/jsp/dbsearch/PrimarySearch_ki.jsp?energyterm=kJ/mole&tag=pol&polymerid=2622&target=Tyrosine-protein+phosphatase+non-receptor+type+1&column=ki&startPg=0&Increment=50&submit=Sea
rch
http://www.bindingdb.org/jsp/dbsearch/PrimarySearch_ki.jsp?energyterm=kJ/mole&tag=r21&monomerid=50189654&enzyme=Tyrosine-protein+phosphatase+non-receptor+type+1&column=ki&startPg=0&Increment=50&submit
=Search

> <PubChem CID of Ligand>
44412914

> <PubChem SID of Ligand>
104073175

> <ChEMBL ID of Ligand>
CHEMBL210965

> <ZINC ID of Ligand>
ZINC36088563

> <Number of Protein Chains in Target (bigger than 1 implies a multichain complex)>
1

> <BindingDB Target Chain Sequence>
MEMEKEFEQIDKSGSWAAIYQDIRHEASDFPCRVAKLPKNKNRNRYRDVSPFDHSRIKLHQEDNDYINASLIKMEEAQRSYILTQGPLPNTCGHFWEMVWEQKSRGVVMLNRVMEKGSLKCAQYWPQKEEKEMIFEDTNLKLTLISEDIKSYYTVRQLELENLTTQETREILHFHYTTWPDFGVPESPASFLNFLFKVRE
SGSLSPEHGPVVVHCSAGIGRSGTFCLADTCLLLMDKRKDPSSVDIKKVLLEMRKFRMGLIQTADQLRFSYLAVIEGAKFIMGDSSVQDQWKELSHEDLEPPPEHIPPPPRPPKRILEPHNGKCREFFPNHQWVKEETQEDKDCPIKEEKGSPLNAAPYGIESMSQDTEVRSRVVGGSLRGAQAASPAKGEPSLPEKDED
HALSYWKPFLVNMCVATVLTAGAYLCYRFLFNSNT

> <PDB ID(s) of Target Chain>
1BZJ,1G7G,1GFY,1JF7,1KAK,1KAV,1LQF,1NL9,1NNY,1NO6,1NZ7,1OEM,1OEO,1OES,1OET,1OEU,1OEV,1ONY,1ONZ,1PH0,1PXH,1PYN,1Q1M,1Q6J,1Q6M,1Q6N,1Q6P,1Q6S,1Q6T,1QXK,1SUG,1T48,1T49,1T4J,1WAX,1XBO,2AZR,2B07,2BGD,2BGE,
2CM2,2CM3,2CM7,2CM8,2CMA,2CMB,2CMC,2CNE,2CNF,2CNG,2CNH,2CNI,2F6T,2F6V,2F6W,2F6Y,2F6Z,2F70,2F71,2FJN,2H4G,2H4K,2HB1,2HNP,2HNQ,2QBP,2QBQ,2QBR,2QBS,2VEU,2VEV,2VEW,2VEX,2VEY,2ZMM,2ZN7,3A5J,3CWE,3D9C,3EAX,
3EB1,3EU0,3I7Z,3I80,3SME,4BJO,4I8N,4QBW,4Y14,5K9V,5K9W,5KA0,5KA1,5T19,6B90,6NTP,6W30,7KEY,7KLX,7LFO,7MN9,7MNA,8DU7,8G65,8G67,8G68,8G69,8G6A,8SKL

> <UniProt (SwissProt) Recommended Name of Target Chain>
Tyrosine-protein phosphatase non-receptor type 1

> <UniProt (SwissProt) Entry Name of Target Chain>
PTN1_HUMAN

> <UniProt (SwissProt) Primary ID of Target Chain>
P18031

> <UniProt (SwissProt) Secondary ID(s) of Target Chain>
Q5TGD8 Q9BQV9 Q9NQQ4

$$$$
Molecule
  SciTegic10242319433D

 69 74  0  0  0  0            999 V2000
    0.8727   -6.1412   -0.0002 C   0  0
    1.3638   -4.8655   -0.0002 C   0  0
   -0.8372   -6.1044    0.0001 S   0  0
    0.2082   -3.8480    0.0002 C   0  0
   -1.0763   -4.4823    0.0007 C   0  0
    8.9772   -1.6447    0.0008 C   0  0
    7.6528   -1.9203    0.0011 C   0  0
    7.1682   -3.3511   -0.0010 C   0  0
    2.8627   -4.4706    0.0000 C   0  0
    1.6742   -7.4250    0.0001 C   0  0
    9.9637   -2.7258    0.0045 C   0  0
    9.4885   -0.2321    0.0012 C   0  0
   11.8944   -4.8388    0.0032 C   0  0
    5.6555   -3.7186   -0.0004 C   0  0
   11.3513   -2.3763   -0.0018 O   0  0
    8.0883   -4.3194    0.0026 C   0  0
   11.1425   -5.5638    0.0266 O   0  0
    9.0619   -3.5193   -0.0312 C   0  0
    3.2355   -3.1810    0.0001 C   0  0
    3.9337   -5.4922   -0.0011 C   0  0
    5.2298   -5.1454   -0.0009 C   0  0
    4.6950   -2.7849    0.0001 C   0  0
   10.8050    0.0014    0.0004 C   0  0
    8.5674    0.9092    0.0015 C   0  0
   12.3645   -3.4153   -0.0115 C   0  0
   10.4888    2.4075    0.0009 C   0  0
   12.7879   -5.8767    0.0028 O   0  0
    0.7567   -8.6600   -0.0003 C   0  0
    9.0422    2.1576    0.0017 C   0  0
   11.3315    1.3760    0.0003 C   0  0
    0.3033   -2.5214    0.0008 C   0  0
   10.9716    3.7274    0.0010 O   0  0
   -2.2253   -3.8198    0.0006 C   0  0
    1.2940   -9.8812   -0.0005 C   0  0
   -0.7110   -8.5369    0.0005 C   0  0
   12.4048    3.7382   -0.0002 C   0  0
   -0.9600   -1.7357    0.0006 C   0  0
   -2.1528   -2.3498    0.0010 C   0  0
    0.4347  -11.0744    0.0000 C   0  0
   -1.4889   -9.6070    0.0008 C   0  0
   -0.8899  -10.9441   -0.0002 C   0  0
    6.9302   -1.1042    0.0028 H   0  0
    2.3031   -7.4504   -0.8898 H   0  0
    2.3024   -7.4505    0.8905 H   0  0
    8.0215   -5.4071    0.0261 H   0  0
    9.4243   -3.9433   -0.9677 H   0  0
    2.4711   -2.4040    0.0003 H   0  0
    3.6639   -6.5483   -0.0021 H   0  0
    5.9895   -5.9270   -0.0012 H   0  0
    4.9680   -1.7296    0.0006 H   0  0
   11.4991   -0.8391   -0.0001 H   0  0
    7.4909    0.7379    0.0016 H   0  0
   12.9907   -3.2691    0.8686 H   0  0
   12.9641   -3.2786   -0.9114 H   0  0
   13.3839   -5.8257   -0.8602 H   0  0
    8.3490    2.9989    0.0025 H   0  0
   12.4077    1.5492   -0.0004 H   0  0
    1.2744   -2.0264    0.0013 H   0  0
   -3.1822   -4.3417    0.0003 H   0  0
    2.3781   -9.9952   -0.0010 H   0  0
   -1.1647   -7.5458    0.0010 H   0  0
   12.7609    4.7683   -0.0001 H   0  0
   12.7717    3.2275   -0.8906 H   0  0
   12.7732    3.2268    0.8892 H   0  0
   -0.9159   -0.6466    0.0002 H   0  0
   -3.0691   -1.7595    0.0015 H   0  0
    0.8835  -12.0678    0.0005 H   0  0
   -2.5731   -9.4942    0.0018 H   0  0
   -1.5266  -11.8288   -0.0011 H   0  0
  2  1  2  0
  3  1  1  0
  4  2  1  0
  5  3  1  0
  6  7  2  0
  7  8  1  0
  8 14  1  0
  9  2  1  0
 10  1  1  0
 11 18  2  0
 12  6  1  0
 13 25  1  0
 14 21  1  0
 15 11  1  0
 16  8  2  0
 17 13  2  0
 18 16  1  0
 19  9  2  0
 20  9  1  0
 21 20  2  0
 22 19  1  0
 23 12  2  0
 24 12  1  0
 25 15  1  0
 26 29  1  0
 27 13  1  0
 28 10  1  0
 29 24  2  0
 30 23  1  0
 31  4  2  0
 32 26  1  0
 33  5  2  0
 34 28  2  0
 35 28  1  0
 36 32  1  0
 37 31  1  0
 38 33  1  0
 39 34  1  0
 40 35  2  0
 41 40  1  0
  4  5  1  0
 37 38  2  0
 22 14  2  0
 39 41  2  0
  6 11  1  0
 30 26  2  0
  7 42  1  0
 10 43  1  0
 10 44  1  0
 16 45  1  0
 18 46  1  0
 19 47  1  0
 20 48  1  0
 21 49  1  0
 22 50  1  0
 23 51  1  0
 24 52  1  0
 25 53  1  0
 25 54  1  0
 27 55  1  0
 29 56  1  0
 30 57  1  0
 31 58  1  0
 33 59  1  0
 34 60  1  0
 35 61  1  0
 36 62  1  0
 36 63  1  0
 36 64  1  0
 37 65  1  0
 38 66  1  0
 39 67  1  0
 40 68  1  0
 41 69  1  0
M  END
> <Name>
Molecule

> <Clean Energy>
355.747

> <From>
www.bindingDB.org

> <BindingDB Reactant_set_id>
51015948

> <Ligand InChI>
InChI=1S/C36H28O4S/c1-39-29-18-15-26(16-19-29)31-22-28(17-20-32(31)40-23-35(37)38)25-11-13-27(14-12-25)36-30-9-5-6-10-33(30)41-34(36)21-24-7-3-2-4-8-24/h2-20,22H,21,23H2,1H3,(H,37,38)

> <Ligand InChI Key>
MNJBJDGVXBRPRB-UHFFFAOYSA-N

> <BindingDB MonomerID>
50086938

> <BindingDB Ligand Name>
CHEMBL24843::[4-(2-Benzyl-benzo[b]thiophen-3-yl)-4''''-methoxy-[1,1'';3'',1'''']terphenyl-4''-yloxy]-acetic acid::[4-(2-Benzyl-benzo[b]thiophen-3-yl)-4''-methoxy-[1,1':3',1'']terphenyl-4'-yloxy]-aceti
c acid::[4-(2-Benzyl-benzo[b]thiophen-3-yl)-4''-methoxy-[1,1';3',1'']terphenyl-4'-yloxy]-acetic acid

> <Target Name>
Tyrosine-protein phosphatase non-receptor type 1

> <Target Source Organism According to Curator or DataSource>
Homo sapiens

> <IC50 (nM)>
79.43

> <Curation/DataSource>
ChEMBL

> <Article DOI>
10.1016/j.bmcl.2010.04.033

> <BindingDB Entry DOI>
10.7270/Q27D2WCC

> <PMID>
20452766

> <Authors>
Cheng, Y; Zhou, M; Tung, CH; Ji, M; Zhang, F

> <Institution>
Tsinghua University

> <Link to Ligand in BindingDB>
http://www.bindingdb.org/bind/chemsearch/marvin/MolStructure.jsp?monomerid=50086938

> <Link to Ligand-Target Pair in BindingDB>
http://www.bindingdb.org/jsp/dbsearch/PrimarySearch_ki.jsp?energyterm=kJ/mole&tag=pol&polymerid=2622&target=Tyrosine-protein+phosphatase+non-receptor+type+1&column=ki&startPg=0&Increment=50&submit=Sea
rch
http://www.bindingdb.org/jsp/dbsearch/PrimarySearch_ki.jsp?energyterm=kJ/mole&tag=r21&monomerid=50086938&enzyme=Tyrosine-protein+phosphatase+non-receptor+type+1&column=ki&startPg=0&Increment=50&submit
=Search

> <PubChem CID of Ligand>
9807792

> <PubChem SID of Ligand>
103986049

> <ChEMBL ID of Ligand>
CHEMBL24843

> <ZINC ID of Ligand>
ZINC28758332

> <Number of Protein Chains in Target (bigger than 1 implies a multichain complex)>
1

> <BindingDB Target Chain Sequence>
MEMEKEFEQIDKSGSWAAIYQDIRHEASDFPCRVAKLPKNKNRNRYRDVSPFDHSRIKLHQEDNDYINASLIKMEEAQRSYILTQGPLPNTCGHFWEMVWEQKSRGVVMLNRVMEKGSLKCAQYWPQKEEKEMIFEDTNLKLTLISEDIKSYYTVRQLELENLTTQETREILHFHYTTWPDFGVPESPASFLNFLFKVRE
SGSLSPEHGPVVVHCSAGIGRSGTFCLADTCLLLMDKRKDPSSVDIKKVLLEMRKFRMGLIQTADQLRFSYLAVIEGAKFIMGDSSVQDQWKELSHEDLEPPPEHIPPPPRPPKRILEPHNGKCREFFPNHQWVKEETQEDKDCPIKEEKGSPLNAAPYGIESMSQDTEVRSRVVGGSLRGAQAASPAKGEPSLPEKDED
HALSYWKPFLVNMCVATVLTAGAYLCYRFLFNSNT

> <PDB ID(s) of Target Chain>
1BZJ,1G7G,1GFY,1JF7,1KAK,1KAV,1LQF,1NL9,1NNY,1NO6,1NZ7,1OEM,1OEO,1OES,1OET,1OEU,1OEV,1ONY,1ONZ,1PH0,1PXH,1PYN,1Q1M,1Q6J,1Q6M,1Q6N,1Q6P,1Q6S,1Q6T,1QXK,1SUG,1T48,1T49,1T4J,1WAX,1XBO,2AZR,2B07,2BGD,2BGE,
2CM2,2CM3,2CM7,2CM8,2CMA,2CMB,2CMC,2CNE,2CNF,2CNG,2CNH,2CNI,2F6T,2F6V,2F6W,2F6Y,2F6Z,2F70,2F71,2FJN,2H4G,2H4K,2HB1,2HNP,2HNQ,2QBP,2QBQ,2QBR,2QBS,2VEU,2VEV,2VEW,2VEX,2VEY,2ZMM,2ZN7,3A5J,3CWE,3D9C,3EAX,
3EB1,3EU0,3I7Z,3I80,3SME,4BJO,4I8N,4QBW,4Y14,5K9V,5K9W,5KA0,5KA1,5T19,6B90,6NTP,6W30,7KEY,7KLX,7LFO,7MN9,7MNA,8DU7,8G65,8G67,8G68,8G69,8G6A,8SKL

> <UniProt (SwissProt) Recommended Name of Target Chain>
Tyrosine-protein phosphatase non-receptor type 1

> <UniProt (SwissProt) Entry Name of Target Chain>
PTN1_HUMAN

> <UniProt (SwissProt) Primary ID of Target Chain>
P18031

> <UniProt (SwissProt) Secondary ID(s) of Target Chain>
Q5TGD8 Q9BQV9 Q9NQQ4

$$$$
Molecule
  SciTegic10242319433D

 48 50  0  0  0  0            999 V2000
    1.7840  -26.9278   -0.0136 C   0  0
    1.8537  -28.2590   -0.0856 C   0  0
    3.1482  -28.9415   -0.0419 C   0  0
    3.0392  -26.1554    0.1026 C   0  0
    4.2173  -26.7813    0.1353 C   0  0
    4.2757  -28.2404    0.0679 C   0  0
    5.6014  -28.9684    0.1250 C   0  0
    6.7072  -28.1233    0.5402 O   0  0
    6.6913  -26.8798   -0.1545 C   0  0  1  0  0  0
    5.4884  -26.0001    0.2631 C   0  0
    7.9778  -26.1446    0.0944 C   0  0
    9.0395  -26.7726    0.1793 O   0  0
    7.9752  -24.7620    0.2422 O   0  0
    0.5245  -26.2268   -0.0584 N   0  0
   -0.6944  -26.8089   -0.0003 C   0  0
   -1.9407  -25.9491   -0.0938 C   0  0
   -0.8289  -28.0321    0.1248 O   0  0
   -3.2026  -26.8274    0.1296 C   0  0
   -4.5016  -26.0065   -0.1034 C   0  0
   -5.7330  -26.9051    0.1877 C   0  0
   -7.0588  -26.1851   -0.1800 C   0  0  2  0  0  0
   -7.3186  -24.8682    0.6134 C   0  0
   -8.7062  -24.3119    0.0746 C   0  0
   -9.8668  -25.7113    0.1157 S   0  0
   -8.4845  -27.2057    0.2124 S   0  0
    0.9382  -28.8434   -0.1778 H   0  0
    3.1897  -30.0291   -0.0996 H   0  0
    3.0021  -25.0676    0.1618 H   0  0
    5.5123  -29.7928    0.8325 H   0  0
    5.8217  -29.3626   -0.8671 H   0  0
    6.6133  -27.0839   -1.2223 H   0  0
    5.4403  -25.1235   -0.3830 H   0  0
    5.6150  -25.6827    1.2982 H   0  0
    8.3435  -24.5104    1.1928 H   0  0
    0.5573  -25.1608   -0.1444 H   0  0
   -1.9017  -25.1711    0.6686 H   0  0
   -1.9900  -25.4892   -1.0808 H   0  0
   -3.1811  -27.6656   -0.5669 H   0  0
   -3.1979  -27.2041    1.1524 H   0  0
   -4.5131  -25.1453    0.5646 H   0  0
   -4.5362  -25.6651   -1.1379 H   0  0
   -5.6514  -27.8196   -0.3998 H   0  0
   -5.7472  -27.1543    1.2487 H   0  0
   -7.0608  -25.9647   -1.2475 H   0  0
   -7.3803  -25.0738    1.6820 H   0  0
   -6.5219  -24.1482    0.4268 H   0  0
   -9.0640  -23.5059    0.7153 H   0  0
   -8.5948  -23.9438   -0.9453 H   0  0
 11 12  2  0
  2  3  1  0
 11 13  1  0
  3  6  2  0
  1 14  1  0
  1  2  2  0
 14 15  1  0
  5  4  2  0
 15 16  1  0
  4  1  1  0
 15 17  2  0
  5 10  1  0
 16 18  1  0
  6  7  1  0
 18 19  1  0
  7  8  1  0
 19 20  1  0
  9  8  1  0
 21 22  1  0
  9 10  1  0
  5  6  1  0
  9 11  1  0
 22 23  1  0
 23 24  1  0
 24 25  1  0
 21 25  1  0
 21 20  1  0
  2 26  1  0
  3 27  1  0
  4 28  1  0
  7 29  1  0
  7 30  1  0
  9 31  1  0
 10 32  1  0
 10 33  1  0
 13 34  1  0
 14 35  1  0
 16 36  1  0
 16 37  1  0
 18 38  1  0
 18 39  1  0
 19 40  1  0
 19 41  1  0
 20 42  1  0
 20 43  1  0
 21 44  1  0
 22 45  1  0
 22 46  1  0
 23 47  1  0
 23 48  1  0
M  END
> <Name>
Molecule

> <Clean Energy>
30.8574

> <From>
www.bindingDB.org

> <BindingDB Reactant_set_id>
50513462

> <Ligand InChI>
InChI=1S/C18H23NO4S2/c20-17(4-2-1-3-15-7-8-24-25-15)19-14-6-5-12-11-23-16(18(21)22)10-13(12)9-14/h5-6,9,15-16H,1-4,7-8,10-11H2,(H,19,20)(H,21,22)/t15-,16+/m1/s1

> <Ligand InChI Key>
YMAKLUCZHGNMLT-CVEARBPZSA-N

> <BindingDB MonomerID>
50296381

> <BindingDB Ligand Name>
(3S)-6-{4-[(3R)-1,2-Dithiolan-3-yl]butylcarboxamido}-isochroman-3-carboxylic acid::CHEMBL562469

> <Target Name>
Tyrosine-protein phosphatase non-receptor type 1

> <Target Source Organism According to Curator or DataSource>
Homo sapiens

> <IC50 (nM)>
80

> <Curation/DataSource>
ChEMBL

> <Article DOI>
10.1016/j.ejmech.2009.03.009

> <BindingDB Entry DOI>
10.7270/Q2FJ2GTG

> <PMID>
19349096

> <Authors>
Lakshminarayana, N; Rajendra Prasad, Y; Gharat, L; Thomas, A; Ravikumar, P; Narayanan, S; Srinivasan, CV; Gopalan, B

> <Institution>
Glenmark Research Center

> <Link to Ligand in BindingDB>
http://www.bindingdb.org/bind/chemsearch/marvin/MolStructure.jsp?monomerid=50296381

> <Link to Ligand-Target Pair in BindingDB>
http://www.bindingdb.org/jsp/dbsearch/PrimarySearch_ki.jsp?energyterm=kJ/mole&tag=pol&polymerid=2622&target=Tyrosine-protein+phosphatase+non-receptor+type+1&column=ki&startPg=0&Increment=50&submit=Sea
rch
http://www.bindingdb.org/jsp/dbsearch/PrimarySearch_ki.jsp?energyterm=kJ/mole&tag=r21&monomerid=50296381&enzyme=Tyrosine-protein+phosphatase+non-receptor+type+1&column=ki&startPg=0&Increment=50&submit
=Search

> <PubChem CID of Ligand>
44139928

> <PubChem SID of Ligand>
104137912

> <ChEMBL ID of Ligand>
CHEMBL562469

> <KEGG ID of Ligand>
C02051

> <Number of Protein Chains in Target (bigger than 1 implies a multichain complex)>
1

> <BindingDB Target Chain Sequence>
MEMEKEFEQIDKSGSWAAIYQDIRHEASDFPCRVAKLPKNKNRNRYRDVSPFDHSRIKLHQEDNDYINASLIKMEEAQRSYILTQGPLPNTCGHFWEMVWEQKSRGVVMLNRVMEKGSLKCAQYWPQKEEKEMIFEDTNLKLTLISEDIKSYYTVRQLELENLTTQETREILHFHYTTWPDFGVPESPASFLNFLFKVRE
SGSLSPEHGPVVVHCSAGIGRSGTFCLADTCLLLMDKRKDPSSVDIKKVLLEMRKFRMGLIQTADQLRFSYLAVIEGAKFIMGDSSVQDQWKELSHEDLEPPPEHIPPPPRPPKRILEPHNGKCREFFPNHQWVKEETQEDKDCPIKEEKGSPLNAAPYGIESMSQDTEVRSRVVGGSLRGAQAASPAKGEPSLPEKDED
HALSYWKPFLVNMCVATVLTAGAYLCYRFLFNSNT

> <PDB ID(s) of Target Chain>
1BZJ,1G7G,1GFY,1JF7,1KAK,1KAV,1LQF,1NL9,1NNY,1NO6,1NZ7,1OEM,1OEO,1OES,1OET,1OEU,1OEV,1ONY,1ONZ,1PH0,1PXH,1PYN,1Q1M,1Q6J,1Q6M,1Q6N,1Q6P,1Q6S,1Q6T,1QXK,1SUG,1T48,1T49,1T4J,1WAX,1XBO,2AZR,2B07,2BGD,2BGE,
2CM2,2CM3,2CM7,2CM8,2CMA,2CMB,2CMC,2CNE,2CNF,2CNG,2CNH,2CNI,2F6T,2F6V,2F6W,2F6Y,2F6Z,2F70,2F71,2FJN,2H4G,2H4K,2HB1,2HNP,2HNQ,2QBP,2QBQ,2QBR,2QBS,2VEU,2VEV,2VEW,2VEX,2VEY,2ZMM,2ZN7,3A5J,3CWE,3D9C,3EAX,
3EB1,3EU0,3I7Z,3I80,3SME,4BJO,4I8N,4QBW,4Y14,5K9V,5K9W,5KA0,5KA1,5T19,6B90,6NTP,6W30,7KEY,7KLX,7LFO,7MN9,7MNA,8DU7,8G65,8G67,8G68,8G69,8G6A,8SKL

> <UniProt (SwissProt) Recommended Name of Target Chain>
Tyrosine-protein phosphatase non-receptor type 1

> <UniProt (SwissProt) Entry Name of Target Chain>
PTN1_HUMAN

> <UniProt (SwissProt) Primary ID of Target Chain>
P18031

> <UniProt (SwissProt) Secondary ID(s) of Target Chain>
Q5TGD8 Q9BQV9 Q9NQQ4

$$$$
Molecule
  SciTegic10242319433D

 31 33  0  0  0  0            999 V2000
    5.2354  -10.4408    0.1074 C   0  0
    5.2703  -11.9034    0.1128 C   0  0
    6.4245  -12.5573    0.0839 C   0  0
    7.6751  -11.8241    0.0523 C   0  0
    7.6686  -10.4905    0.0478 C   0  0
    6.3906   -9.7414    0.0747 C   0  0
    3.9806   -9.8378    0.1312 O   0  0
    6.4587   -8.2933    0.0541 N   0  0
    7.9304   -7.4739   -0.0903 S   0  0
    7.2984   -5.9317   -0.2233 N   0  0
    5.9076   -5.9864   -0.1115 C   0  0
    5.3083   -7.3815    0.0793 C   0  0
    8.7856   -7.6134    1.1545 O   0  0
    8.6845   -7.8823   -1.3416 O   0  0
    5.2013   -4.9737   -0.1755 O   0  0
    8.9320  -12.5693    0.0272 C   0  0
    9.0135  -13.8940    0.0111 C   0  0
   10.4373  -14.2176   -0.0096 C   0  0
   11.1185  -13.0685   -0.0034 C   0  0
   10.1975  -12.0052    0.0188 N   0  0
    4.3355  -12.4634    0.1410 H   0  0
    6.4326  -13.6473    0.0839 H   0  0
    8.6127   -9.9463    0.0241 H   0  0
    3.8987   -9.2326    0.9854 H   0  0
    7.8714   -5.0402   -0.3712 H   0  0
    4.7875   -7.4477    1.0345 H   0  0
    4.6160   -7.6153   -0.7295 H   0  0
    8.1829  -14.5998    0.0130 H   0  0
   10.8678  -15.2188   -0.0271 H   0  0
   12.2041  -12.9711   -0.0139 H   0  0
   10.4298  -10.9608    0.0276 H   0  0
  2  3  2  0
  5  6  1  0
  9 10  1  0
 10 11  1  0
 11 12  1  0
 12  8  1  0
  6  1  2  0
  9 13  2  0
  1  2  1  0
  9 14  2  0
  1  7  1  0
 11 15  2  0
  3  4  1  0
  4 16  1  0
 17 18  1  0
  6  8  1  0
  8  9  1  0
  4  5  2  0
 16 17  2  0
 18 19  2  0
 19 20  1  0
 20 16  1  0
  2 21  1  0
  3 22  1  0
  5 23  1  0
  7 24  1  0
 10 25  1  0
 12 26  1  0
 12 27  1  0
 17 28  1  0
 18 29  1  0
 19 30  1  0
 20 31  1  0
M  END
> <Name>
Molecule

> <Clean Energy>
27.9625

> <From>
www.bindingDB.org

> <BindingDB Reactant_set_id>
50554748

> <Ligand InChI>
InChI=1S/C12H11N3O4S/c16-11-4-3-8(9-2-1-5-13-9)6-10(11)15-7-12(17)14-20(15,18)19/h1-6,13,16H,7H2,(H,14,17)

> <Ligand InChI Key>
RSUVULGQJUHZHH-UHFFFAOYSA-N

> <BindingDB MonomerID>
50308840

> <BindingDB Ligand Name>
5-[2-Hydroxy-5-(1H-pyrrol-2-yl)-phenyl]-1,1-dioxo-1lambda*6*-[1,2,5]thiadiazolidin-3-one::CHEMBL601290

> <Target Name>
Tyrosine-protein phosphatase non-receptor type 1

> <Target Source Organism According to Curator or DataSource>
Homo sapiens

> <IC50 (nM)>
80

> <Curation/DataSource>
ChEMBL

> <Article DOI>
10.1021/jm901090b

> <BindingDB Entry DOI>
10.7270/Q28P60MB

> <PMID>
20000419

> <Authors>
Combs, AP

> <Institution>
Incyte Corporation

> <Link to Ligand in BindingDB>
http://www.bindingdb.org/bind/chemsearch/marvin/MolStructure.jsp?monomerid=50308840

> <Link to Ligand-Target Pair in BindingDB>
http://www.bindingdb.org/jsp/dbsearch/PrimarySearch_ki.jsp?energyterm=kJ/mole&tag=pol&polymerid=2622&target=Tyrosine-protein+phosphatase+non-receptor+type+1&column=ki&startPg=0&Increment=50&submit=Sea
rch
http://www.bindingdb.org/jsp/dbsearch/PrimarySearch_ki.jsp?energyterm=kJ/mole&tag=r21&monomerid=50308840&enzyme=Tyrosine-protein+phosphatase+non-receptor+type+1&column=ki&startPg=0&Increment=50&submit
=Search

> <PubChem CID of Ligand>
17757503

> <PubChem SID of Ligand>
104163201

> <ChEMBL ID of Ligand>
CHEMBL601290

> <ZINC ID of Ligand>
ZINC45373950

> <Number of Protein Chains in Target (bigger than 1 implies a multichain complex)>
1

> <BindingDB Target Chain Sequence>
MEMEKEFEQIDKSGSWAAIYQDIRHEASDFPCRVAKLPKNKNRNRYRDVSPFDHSRIKLHQEDNDYINASLIKMEEAQRSYILTQGPLPNTCGHFWEMVWEQKSRGVVMLNRVMEKGSLKCAQYWPQKEEKEMIFEDTNLKLTLISEDIKSYYTVRQLELENLTTQETREILHFHYTTWPDFGVPESPASFLNFLFKVRE
SGSLSPEHGPVVVHCSAGIGRSGTFCLADTCLLLMDKRKDPSSVDIKKVLLEMRKFRMGLIQTADQLRFSYLAVIEGAKFIMGDSSVQDQWKELSHEDLEPPPEHIPPPPRPPKRILEPHNGKCREFFPNHQWVKEETQEDKDCPIKEEKGSPLNAAPYGIESMSQDTEVRSRVVGGSLRGAQAASPAKGEPSLPEKDED
HALSYWKPFLVNMCVATVLTAGAYLCYRFLFNSNT

> <PDB ID(s) of Target Chain>
1BZJ,1G7G,1GFY,1JF7,1KAK,1KAV,1LQF,1NL9,1NNY,1NO6,1NZ7,1OEM,1OEO,1OES,1OET,1OEU,1OEV,1ONY,1ONZ,1PH0,1PXH,1PYN,1Q1M,1Q6J,1Q6M,1Q6N,1Q6P,1Q6S,1Q6T,1QXK,1SUG,1T48,1T49,1T4J,1WAX,1XBO,2AZR,2B07,2BGD,2BGE,
2CM2,2CM3,2CM7,2CM8,2CMA,2CMB,2CMC,2CNE,2CNF,2CNG,2CNH,2CNI,2F6T,2F6V,2F6W,2F6Y,2F6Z,2F70,2F71,2FJN,2H4G,2H4K,2HB1,2HNP,2HNQ,2QBP,2QBQ,2QBR,2QBS,2VEU,2VEV,2VEW,2VEX,2VEY,2ZMM,2ZN7,3A5J,3CWE,3D9C,3EAX,
3EB1,3EU0,3I7Z,3I80,3SME,4BJO,4I8N,4QBW,4Y14,5K9V,5K9W,5KA0,5KA1,5T19,6B90,6NTP,6W30,7KEY,7KLX,7LFO,7MN9,7MNA,8DU7,8G65,8G67,8G68,8G69,8G6A,8SKL

> <UniProt (SwissProt) Recommended Name of Target Chain>
Tyrosine-protein phosphatase non-receptor type 1

> <UniProt (SwissProt) Entry Name of Target Chain>
PTN1_HUMAN

> <UniProt (SwissProt) Primary ID of Target Chain>
P18031

> <UniProt (SwissProt) Secondary ID(s) of Target Chain>
Q5TGD8 Q9BQV9 Q9NQQ4

$$$$
Molecule
  SciTegic10242319433D

 57 61  0  0  0  0            999 V2000
   -4.8679  -25.7146   -0.1533 C   0  0
   -4.9014  -27.0864   -0.6810 C   0  0
   -3.8442  -27.8866   -0.5408 C   0  0
   -2.6359  -27.3875    0.1290 C   0  0
   -2.6153  -26.1501    0.6065 C   0  0
   -3.7722  -25.2970    0.4708 C   0  0
   -6.1073  -24.8270   -0.3529 C   0  0
   -1.4043  -28.2357    0.2944 C   0  0  1  0  0  0
   -6.2688  -23.4341    0.4214 C   0  0  2  0  0  0
   -7.6582  -22.8282    0.2892 N   0  0
   -5.1520  -22.3905    0.1727 C   0  0
   -3.9490  -22.7011   -0.1225 N   0  0
   -5.3026  -20.9612    0.3080 N   0  0
   -4.0246  -20.4826    0.0727 C   0  0
   -3.2026  -21.5566   -0.1924 C   0  0
   -1.9091  -21.4489   -0.4336 C   0  0
   -1.3327  -20.0920   -0.4303 C   0  0
   -2.1223  -19.0355   -0.1826 C   0  0
   -3.5701  -19.2299    0.0934 C   0  0
   -1.4759  -29.9233   -0.4210 S   0  0
    0.2371  -29.7936   -0.0491 N   0  0
    0.7965  -28.5305    0.0004 C   0  0
   -0.1562  -27.4678   -0.1258 C   0  0
   -0.9306  -31.2825   -0.0251 O   0  0
   -2.6197  -30.2356    0.5232 O   0  0
    2.0014  -28.3311    0.1912 O   0  0
   -8.9052  -23.9161    0.9585 S   0  0
  -10.5901  -24.3497    0.5858 C   0  0
   -8.8255  -24.6388   -0.3695 O   0  0
   -9.5897  -22.5954    1.2600 O   0  0
  -11.5843  -23.4617    0.6065 C   0  0
  -12.9516  -23.8974    0.2603 C   0  0
  -13.1879  -25.1684   -0.0729 C   0  0
  -12.0966  -26.1325   -0.0900 C   0  0
  -10.8654  -25.7436    0.2227 C   0  0
  -14.4281  -25.5653   -0.3949 F   0  0
   -5.7943  -27.4509   -1.1889 H   0  0
   -3.8764  -28.9073   -0.9219 H   0  0
   -1.7206  -25.7756    1.1039 H   0  0
   -3.7459  -24.2906    0.8886 H   0  0
   -6.9690  -25.4347   -0.0768 H   0  0
   -6.1517  -24.5949   -1.4170 H   0  0
   -1.3009  -28.3843    1.3693 H   0  0
   -6.1778  -23.6914    1.4767 H   0  0
   -7.8659  -22.6551   -0.7461 H   0  0
   -6.1883  -20.4055    0.5352 H   0  0
   -1.2928  -22.3269   -0.6272 H   0  0
   -0.2706  -19.9476   -0.6280 H   0  0
   -1.7002  -18.0305   -0.1838 H   0  0
   -4.2291  -18.3873    0.3028 H   0  0
    0.8290  -30.6661    0.1334 H   0  0
    0.0619  -26.6383    0.5469 H   0  0
   -0.2262  -27.0979   -1.1487 H   0  0
  -11.3894  -22.4238    0.8764 H   0  0
  -13.7711  -23.1789    0.2769 H   0  0
  -12.2895  -27.1711   -0.3589 H   0  0
  -10.0512  -26.4683    0.2093 H   0  0
 17 18  2  0
  9  7  1  0
 18 19  1  0
 19 14  2  0
  8 20  1  0
  4  5  2  0
  9 10  1  0
  2  3  2  0
  9 11  1  0
 20 21  1  0
 21 22  1  0
 22 23  1  0
  8 23  1  0
 11 12  2  0
 20 24  2  0
  5  6  1  0
 20 25  2  0
  6  1  2  0
 22 26  2  0
 12 15  1  0
 10 27  1  0
 14 13  1  0
 27 28  1  0
 13 11  1  0
 27 29  2  0
  1  2  1  0
 27 30  2  0
  1  7  1  0
 28 31  2  0
 14 15  1  0
 31 32  1  0
  3  4  1  0
 32 33  2  0
 15 16  2  0
 33 34  1  0
  4  8  1  0
 34 35  2  0
 35 28  1  0
 16 17  1  0
 33 36  1  0
  2 37  1  0
  3 38  1  0
  5 39  1  0
  6 40  1  0
  7 41  1  0
  7 42  1  0
  8 43  1  0
  9 44  1  0
 10 45  1  0
 13 46  1  0
 16 47  1  0
 17 48  1  0
 18 49  1  0
 19 50  1  0
 21 51  1  0
 23 52  1  0
 23 53  1  0
 31 54  1  0
 32 55  1  0
 34 56  1  0
 35 57  1  0
M  END
> <Name>
Molecule

> <Clean Energy>
223.332

> <From>
www.bindingDB.org

> <BindingDB Reactant_set_id>
50350959

> <Ligand InChI>
InChI=1S/C24H21FN4O5S2/c25-17-9-11-18(12-10-17)35(31,32)28-21(24-26-19-3-1-2-4-20(19)27-24)13-15-5-7-16(8-6-15)22-14-23(30)29-36(22,33)34/h1-12,21-22,28H,13-14H2,(H,26,27)(H,29,30)

> <Ligand InChI Key>
WJRHNFYXCFLTKZ-UHFFFAOYSA-N

> <BindingDB MonomerID>
50189677

> <BindingDB Ligand Name>
CHEMBL380164::N-{1-(1H-benzoimidazol-2-yl)-2-[4-(1,1,3-trioxo-1lambda*6*-isothiazolidin-5-yl)-phenyl]-ethyl}-4-fluoro-benzenesulfonamide

> <Target Name>
Tyrosine-protein phosphatase non-receptor type 1

> <Target Source Organism According to Curator or DataSource>
Homo sapiens

> <IC50 (nM)>
80

> <Curation/DataSource>
ChEMBL

> <Article DOI>
10.1021/jm0600904

> <BindingDB Entry DOI>
10.7270/Q2JQ10M8

> <PMID>
16789735

> <Authors>
Combs, AP; Zhu, W; Crawley, ML; Glass, B; Polam, P; Sparks, RB; Modi, D; Takvorian, A; McLaughlin, E; Yue, EW; Wasserman, Z; Bower, M; Wei, M; Rupar, M; Ala, PJ; Reid, BM; Ellis, D; Gonneville, L; Emm
, T; Taylor, N; Yeleswaram, S; Li, Y; Wynn, R; Burn, TC; Hollis, G; Liu, PC; Metcalf, B

> <Institution>
Incyte Corporation

> <Link to Ligand in BindingDB>
http://www.bindingdb.org/bind/chemsearch/marvin/MolStructure.jsp?monomerid=50189677

> <Link to Ligand-Target Pair in BindingDB>
http://www.bindingdb.org/jsp/dbsearch/PrimarySearch_ki.jsp?energyterm=kJ/mole&tag=pol&polymerid=2622&target=Tyrosine-protein+phosphatase+non-receptor+type+1&column=ki&startPg=0&Increment=50&submit=Sea
rch
http://www.bindingdb.org/jsp/dbsearch/PrimarySearch_ki.jsp?energyterm=kJ/mole&tag=r21&monomerid=50189677&enzyme=Tyrosine-protein+phosphatase+non-receptor+type+1&column=ki&startPg=0&Increment=50&submit
=Search

> <PubChem CID of Ligand>
21878897

> <PubChem SID of Ligand>
104073198

> <ChEMBL ID of Ligand>
CHEMBL380164

> <ZINC ID of Ligand>
ZINC36088948

> <Number of Protein Chains in Target (bigger than 1 implies a multichain complex)>
1

> <BindingDB Target Chain Sequence>
MEMEKEFEQIDKSGSWAAIYQDIRHEASDFPCRVAKLPKNKNRNRYRDVSPFDHSRIKLHQEDNDYINASLIKMEEAQRSYILTQGPLPNTCGHFWEMVWEQKSRGVVMLNRVMEKGSLKCAQYWPQKEEKEMIFEDTNLKLTLISEDIKSYYTVRQLELENLTTQETREILHFHYTTWPDFGVPESPASFLNFLFKVRE
SGSLSPEHGPVVVHCSAGIGRSGTFCLADTCLLLMDKRKDPSSVDIKKVLLEMRKFRMGLIQTADQLRFSYLAVIEGAKFIMGDSSVQDQWKELSHEDLEPPPEHIPPPPRPPKRILEPHNGKCREFFPNHQWVKEETQEDKDCPIKEEKGSPLNAAPYGIESMSQDTEVRSRVVGGSLRGAQAASPAKGEPSLPEKDED
HALSYWKPFLVNMCVATVLTAGAYLCYRFLFNSNT

> <PDB ID(s) of Target Chain>
1BZJ,1G7G,1GFY,1JF7,1KAK,1KAV,1LQF,1NL9,1NNY,1NO6,1NZ7,1OEM,1OEO,1OES,1OET,1OEU,1OEV,1ONY,1ONZ,1PH0,1PXH,1PYN,1Q1M,1Q6J,1Q6M,1Q6N,1Q6P,1Q6S,1Q6T,1QXK,1SUG,1T48,1T49,1T4J,1WAX,1XBO,2AZR,2B07,2BGD,2BGE,
2CM2,2CM3,2CM7,2CM8,2CMA,2CMB,2CMC,2CNE,2CNF,2CNG,2CNH,2CNI,2F6T,2F6V,2F6W,2F6Y,2F6Z,2F70,2F71,2FJN,2H4G,2H4K,2HB1,2HNP,2HNQ,2QBP,2QBQ,2QBR,2QBS,2VEU,2VEV,2VEW,2VEX,2VEY,2ZMM,2ZN7,3A5J,3CWE,3D9C,3EAX,
3EB1,3EU0,3I7Z,3I80,3SME,4BJO,4I8N,4QBW,4Y14,5K9V,5K9W,5KA0,5KA1,5T19,6B90,6NTP,6W30,7KEY,7KLX,7LFO,7MN9,7MNA,8DU7,8G65,8G67,8G68,8G69,8G6A,8SKL

> <UniProt (SwissProt) Recommended Name of Target Chain>
Tyrosine-protein phosphatase non-receptor type 1

> <UniProt (SwissProt) Entry Name of Target Chain>
PTN1_HUMAN

> <UniProt (SwissProt) Primary ID of Target Chain>
P18031

> <UniProt (SwissProt) Secondary ID(s) of Target Chain>
Q5TGD8 Q9BQV9 Q9NQQ4

$$$$
Molecule
  SciTegic10242319433D

 60 64  0  0  0  0            999 V2000
   18.0172   -8.1513   -0.1586 C   0  0
   17.9814   -9.5274   -0.6753 C   0  0
   19.0369  -10.3286   -0.5280 C   0  0
   20.2457   -9.8264    0.1384 C   0  0
   20.2683   -8.5855    0.6064 C   0  0
   19.1132   -7.7311    0.4630 C   0  0
   16.7804   -7.2619   -0.3692 C   0  0
   21.4765  -10.6746    0.3091 C   0  0  1  0  0  0
   16.6165   -5.8642    0.3950 C   0  0  2  0  0  0
   15.2296   -5.2587    0.2444 N   0  0
   17.7346   -4.8226    0.1552 C   0  0
   18.9421   -5.1371   -0.1318 N   0  0
   17.5873   -3.3949    0.2892 N   0  0
   18.8687   -2.9160    0.0634 C   0  0
   19.6865   -3.9942   -0.1954 C   0  0
   20.9859   -3.8880   -0.4284 C   0  0
   21.5628   -2.5326   -0.4208 C   0  0
   20.7740   -1.4744   -0.1786 C   0  0
   19.3232   -1.6674    0.0874 C   0  0
   21.4004  -12.3691   -0.3885 S   0  0
   23.1156  -12.2381   -0.0289 N   0  0
   23.6761  -10.9750    0.0053 C   0  0
   22.7233   -9.9127   -0.1259 C   0  0
   21.9420  -13.7241    0.0268 O   0  0
   20.2594  -12.6668    0.5637 O   0  0
   24.8824  -10.7746    0.1864 O   0  0
   13.9871   -6.3565    0.8972 S   0  0
   12.2988   -6.7921    0.5483 C   0  0
   14.0593   -7.0523   -0.4461 O   0  0
   13.3056   -5.0374    1.2125 O   0  0
   11.3026   -5.9066    0.5789 C   0  0
    9.9310   -6.3489    0.2560 C   0  0
    9.6941   -7.6231   -0.0651 C   0  0
   10.7882   -8.5832   -0.0930 C   0  0
   12.0225   -8.1883    0.1981 C   0  0
    8.3027   -8.0762   -0.4014 C   0  0
   17.0880   -9.8941   -1.1808 H   0  0
   19.0029  -11.3523   -0.9008 H   0  0
   21.1633   -8.2089    1.1017 H   0  0
   19.1412   -6.7215    0.8728 H   0  0
   15.9162   -7.8664   -0.0936 H   0  0
   16.7416   -7.0362   -1.4349 H   0  0
   21.5842  -10.8114    1.3851 H   0  0
   16.6951   -6.1161    1.4525 H   0  0
   15.0337   -5.0843   -0.7930 H   0  0
   16.7009   -2.8378    0.5101 H   0  0
   21.6025   -4.7667   -0.6180 H   0  0
   22.6265   -2.3897   -0.6112 H   0  0
   21.1977   -0.4701   -0.1768 H   0  0
   18.6637   -0.8241    0.2924 H   0  0
   23.7080  -13.1094    0.1579 H   0  0
   22.9462   -9.0768    0.5372 H   0  0
   22.6478   -9.5530   -1.1521 H   0  0
   11.4984   -4.8666    0.8396 H   0  0
    9.1095   -5.6329    0.2798 H   0  0
   10.5947   -9.6241   -0.3523 H   0  0
   12.8387   -8.9103    0.1763 H   0  0
    8.3131   -9.1409   -0.6343 H   0  0
    7.9376   -7.5196   -1.2646 H   0  0
    7.6461   -7.8974    0.4500 H   0  0
 17 18  2  0
  9  7  1  0
 18 19  1  0
 19 14  2  0
  8 20  1  0
  4  5  2  0
  9 10  1  0
  2  3  2  0
  9 11  1  0
 20 21  1  0
 21 22  1  0
 22 23  1  0
  8 23  1  0
 11 12  2  0
 20 24  2  0
  5  6  1  0
 20 25  2  0
  6  1  2  0
 22 26  2  0
 12 15  1  0
 10 27  1  0
 14 13  1  0
 27 28  1  0
 13 11  1  0
 27 29  2  0
  1  2  1  0
 27 30  2  0
  1  7  1  0
 28 31  2  0
 14 15  1  0
 31 32  1  0
  3  4  1  0
 32 33  2  0
 15 16  2  0
 33 34  1  0
  4  8  1  0
 34 35  2  0
 35 28  1  0
 16 17  1  0
 33 36  1  0
  2 37  1  0
  3 38  1  0
  5 39  1  0
  6 40  1  0
  7 41  1  0
  7 42  1  0
  8 43  1  0
  9 44  1  0
 10 45  1  0
 13 46  1  0
 16 47  1  0
 17 48  1  0
 18 49  1  0
 19 50  1  0
 21 51  1  0
 23 52  1  0
 23 53  1  0
 31 54  1  0
 32 55  1  0
 34 56  1  0
 35 57  1  0
 36 58  1  0
 36 59  1  0
 36 60  1  0
M  END
> <Name>
Molecule

> <Clean Energy>
223.311

> <From>
www.bindingDB.org

> <BindingDB Reactant_set_id>
50350963

> <Ligand InChI>
InChI=1S/C25H24N4O5S2/c1-16-6-12-19(13-7-16)35(31,32)28-22(25-26-20-4-2-3-5-21(20)27-25)14-17-8-10-18(11-9-17)23-15-24(30)29-36(23,33)34/h2-13,22-23,28H,14-15H2,1H3,(H,26,27)(H,29,30)

> <Ligand InChI Key>
MKMFGXFLVGUOEJ-UHFFFAOYSA-N

> <BindingDB MonomerID>
50189681

> <BindingDB Ligand Name>
CHEMBL208985::N-{1-(1H-benzoimidazol-2-yl)-2-[4-(1,1,3-trioxo-1lambda*6*-isothiazolidin-5-yl)-phenyl]-ethyl}-4-methyl-benzenesulfonamide

> <Target Name>
Tyrosine-protein phosphatase non-receptor type 1

> <Target Source Organism According to Curator or DataSource>
Homo sapiens

> <IC50 (nM)>
80

> <Curation/DataSource>
ChEMBL

> <Article DOI>
10.1021/jm0600904

> <BindingDB Entry DOI>
10.7270/Q2JQ10M8

> <PMID>
16789735

> <Authors>
Combs, AP; Zhu, W; Crawley, ML; Glass, B; Polam, P; Sparks, RB; Modi, D; Takvorian, A; McLaughlin, E; Yue, EW; Wasserman, Z; Bower, M; Wei, M; Rupar, M; Ala, PJ; Reid, BM; Ellis, D; Gonneville, L; Emm
, T; Taylor, N; Yeleswaram, S; Li, Y; Wynn, R; Burn, TC; Hollis, G; Liu, PC; Metcalf, B

> <Institution>
Incyte Corporation

> <Link to Ligand in BindingDB>
http://www.bindingdb.org/bind/chemsearch/marvin/MolStructure.jsp?monomerid=50189681

> <Link to Ligand-Target Pair in BindingDB>
http://www.bindingdb.org/jsp/dbsearch/PrimarySearch_ki.jsp?energyterm=kJ/mole&tag=pol&polymerid=2622&target=Tyrosine-protein+phosphatase+non-receptor+type+1&column=ki&startPg=0&Increment=50&submit=Sea
rch
http://www.bindingdb.org/jsp/dbsearch/PrimarySearch_ki.jsp?energyterm=kJ/mole&tag=r21&monomerid=50189681&enzyme=Tyrosine-protein+phosphatase+non-receptor+type+1&column=ki&startPg=0&Increment=50&submit
=Search

> <PubChem CID of Ligand>
21878699

> <PubChem SID of Ligand>
104073202

> <ChEMBL ID of Ligand>
CHEMBL208985

> <ZINC ID of Ligand>
ZINC36088570

> <Number of Protein Chains in Target (bigger than 1 implies a multichain complex)>
1

> <BindingDB Target Chain Sequence>
MEMEKEFEQIDKSGSWAAIYQDIRHEASDFPCRVAKLPKNKNRNRYRDVSPFDHSRIKLHQEDNDYINASLIKMEEAQRSYILTQGPLPNTCGHFWEMVWEQKSRGVVMLNRVMEKGSLKCAQYWPQKEEKEMIFEDTNLKLTLISEDIKSYYTVRQLELENLTTQETREILHFHYTTWPDFGVPESPASFLNFLFKVRE
SGSLSPEHGPVVVHCSAGIGRSGTFCLADTCLLLMDKRKDPSSVDIKKVLLEMRKFRMGLIQTADQLRFSYLAVIEGAKFIMGDSSVQDQWKELSHEDLEPPPEHIPPPPRPPKRILEPHNGKCREFFPNHQWVKEETQEDKDCPIKEEKGSPLNAAPYGIESMSQDTEVRSRVVGGSLRGAQAASPAKGEPSLPEKDED
HALSYWKPFLVNMCVATVLTAGAYLCYRFLFNSNT

> <PDB ID(s) of Target Chain>
1BZJ,1G7G,1GFY,1JF7,1KAK,1KAV,1LQF,1NL9,1NNY,1NO6,1NZ7,1OEM,1OEO,1OES,1OET,1OEU,1OEV,1ONY,1ONZ,1PH0,1PXH,1PYN,1Q1M,1Q6J,1Q6M,1Q6N,1Q6P,1Q6S,1Q6T,1QXK,1SUG,1T48,1T49,1T4J,1WAX,1XBO,2AZR,2B07,2BGD,2BGE,
2CM2,2CM3,2CM7,2CM8,2CMA,2CMB,2CMC,2CNE,2CNF,2CNG,2CNH,2CNI,2F6T,2F6V,2F6W,2F6Y,2F6Z,2F70,2F71,2FJN,2H4G,2H4K,2HB1,2HNP,2HNQ,2QBP,2QBQ,2QBR,2QBS,2VEU,2VEV,2VEW,2VEX,2VEY,2ZMM,2ZN7,3A5J,3CWE,3D9C,3EAX,
3EB1,3EU0,3I7Z,3I80,3SME,4BJO,4I8N,4QBW,4Y14,5K9V,5K9W,5KA0,5KA1,5T19,6B90,6NTP,6W30,7KEY,7KLX,7LFO,7MN9,7MNA,8DU7,8G65,8G67,8G68,8G69,8G6A,8SKL

> <UniProt (SwissProt) Recommended Name of Target Chain>
Tyrosine-protein phosphatase non-receptor type 1

> <UniProt (SwissProt) Entry Name of Target Chain>
PTN1_HUMAN

> <UniProt (SwissProt) Primary ID of Target Chain>
P18031

> <UniProt (SwissProt) Secondary ID(s) of Target Chain>
Q5TGD8 Q9BQV9 Q9NQQ4

$$$$
Molecule
  SciTegic10242319433D

 57 62  0  0  0  0            999 V2000
    4.8208  -10.8582    0.0138 C   0  0
    4.0365   -9.7900   -0.0038 C   0  0
    4.6435   -8.3551   -0.0455 C   0  0
    4.0985  -12.0294    0.0394 O   0  0
    6.0261   -8.3315   -0.0420 C   0  0
    2.3247   -4.5405   -0.0044 C   0  0
    6.2320  -10.7808    0.0149 C   0  0
    3.7684   -7.0177   -0.0569 C   0  0
    6.8148   -9.5940   -0.0197 C   0  0
    1.4243   -3.3783    0.1349 O   0  0
    2.6554  -10.3647   -0.0110 C   0  0
    2.7873  -11.6763    0.0195 C   0  0
    1.6976   -5.8260    0.3618 C   0  0
    3.6174   -4.5943   -0.4241 C   0  0
    1.8360   -2.0040   -0.1005 C   0  0  1  0  0  0
    0.5593   -1.1901    0.0097 C   0  0
    2.3778   -6.9735    0.3286 C   0  0
    4.2986   -5.8566   -0.4193 C   0  0
    2.9632   -1.5024    0.8945 C   0  0
    0.5432   -0.1070    0.6033 O   0  0
    7.2848  -12.3605    0.0470 Br  0  0
   -0.1403   -5.8512    0.8480 Br  0  0
    4.7261   -3.1585   -1.0436 Br  0  0
   -0.6402   -1.7559   -0.4048 O   0  0
    3.6530   -0.1800    0.5009 C   0  0
    6.8605   -7.0945   -0.0479 C   0  0
    8.2755   -9.5418   -0.0142 C   0  0
    1.3357   -9.7610   -0.0460 C   0  0
    1.6516  -12.5765    0.0229 C   0  0
    4.9309   -0.0239    0.8499 C   0  0
    3.0030    0.8709   -0.3004 C   0  0
    8.1907   -7.1220   -0.0359 C   0  0
    8.9212   -8.3799   -0.0246 C   0  0
    0.2657  -10.5623   -0.0429 C   0  0
    0.4300  -12.0401   -0.0055 C   0  0
    3.6762    1.9642   -0.6549 C   0  0
    5.6728    1.1765    0.4571 C   0  0
    5.0749    2.1242   -0.2606 C   0  0
    2.2121   -1.9239   -1.1204 H   0  0
    1.8712   -7.9000    0.5992 H   0  0
    5.3401   -5.8626   -0.7406 H   0  0
    2.5088   -1.3654    1.8757 H   0  0
    3.7286   -2.2763    0.9529 H   0  0
   -0.5763   -2.0068   -1.4224 H   0  0
    6.3588   -6.1269   -0.0627 H   0  0
    8.8449  -10.4711   -0.0014 H   0  0
    1.2198   -8.6776   -0.0743 H   0  0
    1.7907  -13.6573    0.0479 H   0  0
    5.4286   -0.7980    1.4339 H   0  0
    1.9633    0.7530   -0.6057 H   0  0
    8.7443   -6.1830   -0.0344 H   0  0
   10.0111   -8.3696   -0.0246 H   0  0
   -0.7344  -10.1296   -0.0679 H   0  0
   -0.4483  -12.6857   -0.0014 H   0  0
    3.1835    2.7408   -1.2399 H   0  0
    6.7154    1.2935    0.7528 H   0  0
    5.6266    3.0174   -0.5538 H   0  0
  2  1  2  0
  3  2  1  0
  4  1  1  0
  5  9  1  0
  6 14  2  0
  7  1  1  0
  8  3  1  0
  9  7  2  0
 10  6  1  0
 11  2  1  0
 12  4  1  0
 13 17  2  0
 14 18  1  0
 15 10  1  0
 15 16  1  0
 17  8  1  0
 18  8  2  0
 15 19  1  0
 20 16  2  0
 21  7  1  0
 22 13  1  0
 23 14  1  0
 24 16  1  0
 25 19  1  0
 26  5  1  0
 27  9  1  0
 28 11  1  0
 29 12  1  0
 30 25  2  0
 31 25  1  0
 32 33  1  0
 33 27  2  0
 34 28  2  0
 35 29  2  0
 36 31  2  0
 37 30  1  0
 38 36  1  0
 12 11  2  0
  3  5  2  0
 35 34  1  0
 26 32  2  0
  6 13  1  0
 38 37  2  0
 15 39  1  0
 17 40  1  0
 18 41  1  0
 19 42  1  0
 19 43  1  0
 24 44  1  0
 26 45  1  0
 27 46  1  0
 28 47  1  0
 29 48  1  0
 30 49  1  0
 31 50  1  0
 32 51  1  0
 33 52  1  0
 34 53  1  0
 35 54  1  0
 36 55  1  0
 37 56  1  0
 38 57  1  0
M  END
> <Name>
Molecule

> <Clean Energy>
73.3252

> <From>
www.bindingDB.org

> <BindingDB Reactant_set_id>
50117503

> <Ligand InChI>
InChI=1S/C31H19Br3O4/c32-22-15-18(16-23(33)29(22)38-25(31(35)36)14-17-8-2-1-3-9-17)26-19-10-4-5-11-20(19)28(34)30-27(26)21-12-6-7-13-24(21)37-30/h1-13,15-16,25H,14H2,(H,35,36)/t25-/m1/s1

> <Ligand InChI Key>
WWEKHDAAECLWTK-RUZDIDTESA-N

> <BindingDB MonomerID>
50079855

> <BindingDB Ligand Name>
(R)-2-[2,6-Dibromo-4-(6-bromo-benzo[b]naphtho[2,3-d]furan-11-yl)-phenoxy]-3-phenyl-propionic acid::CHEMBL324232

> <Target Name>
Tyrosine-protein phosphatase non-receptor type 1

> <Target Source Organism According to Curator or DataSource>
Homo sapiens

> <IC50 (nM)>
80

> <Curation/DataSource>
ChEMBL

> <Article DOI>
10.1021/jm990260v

> <BindingDB Entry DOI>
10.7270/Q2DF6QCQ

> <PMID>
10464006

> <Authors>
Wrobel, J; Sredy, J; Moxham, C; Dietrich, A; Li, Z; Sawicki, DR; Seestaller, L; Wu, L; Katz, A; Sullivan, D; Tio, C; Zhang, ZY

> <Institution>
Wyeth-Ayerst Research

> <Link to Ligand in BindingDB>
http://www.bindingdb.org/bind/chemsearch/marvin/MolStructure.jsp?monomerid=50079855

> <Link to Ligand-Target Pair in BindingDB>
http://www.bindingdb.org/jsp/dbsearch/PrimarySearch_ki.jsp?energyterm=kJ/mole&tag=pol&polymerid=2622&target=Tyrosine-protein+phosphatase+non-receptor+type+1&column=ki&startPg=0&Increment=50&submit=Sea
rch
http://www.bindingdb.org/jsp/dbsearch/PrimarySearch_ki.jsp?energyterm=kJ/mole&tag=r21&monomerid=50079855&enzyme=Tyrosine-protein+phosphatase+non-receptor+type+1&column=ki&startPg=0&Increment=50&submit
=Search

> <PubChem CID of Ligand>
9874843

> <PubChem SID of Ligand>
103971988

> <ChEMBL ID of Ligand>
CHEMBL324232

> <ZINC ID of Ligand>
ZINC03941517

> <Number of Protein Chains in Target (bigger than 1 implies a multichain complex)>
1

> <BindingDB Target Chain Sequence>
MEMEKEFEQIDKSGSWAAIYQDIRHEASDFPCRVAKLPKNKNRNRYRDVSPFDHSRIKLHQEDNDYINASLIKMEEAQRSYILTQGPLPNTCGHFWEMVWEQKSRGVVMLNRVMEKGSLKCAQYWPQKEEKEMIFEDTNLKLTLISEDIKSYYTVRQLELENLTTQETREILHFHYTTWPDFGVPESPASFLNFLFKVRE
SGSLSPEHGPVVVHCSAGIGRSGTFCLADTCLLLMDKRKDPSSVDIKKVLLEMRKFRMGLIQTADQLRFSYLAVIEGAKFIMGDSSVQDQWKELSHEDLEPPPEHIPPPPRPPKRILEPHNGKCREFFPNHQWVKEETQEDKDCPIKEEKGSPLNAAPYGIESMSQDTEVRSRVVGGSLRGAQAASPAKGEPSLPEKDED
HALSYWKPFLVNMCVATVLTAGAYLCYRFLFNSNT

> <PDB ID(s) of Target Chain>
1BZJ,1G7G,1GFY,1JF7,1KAK,1KAV,1LQF,1NL9,1NNY,1NO6,1NZ7,1OEM,1OEO,1OES,1OET,1OEU,1OEV,1ONY,1ONZ,1PH0,1PXH,1PYN,1Q1M,1Q6J,1Q6M,1Q6N,1Q6P,1Q6S,1Q6T,1QXK,1SUG,1T48,1T49,1T4J,1WAX,1XBO,2AZR,2B07,2BGD,2BGE,
2CM2,2CM3,2CM7,2CM8,2CMA,2CMB,2CMC,2CNE,2CNF,2CNG,2CNH,2CNI,2F6T,2F6V,2F6W,2F6Y,2F6Z,2F70,2F71,2FJN,2H4G,2H4K,2HB1,2HNP,2HNQ,2QBP,2QBQ,2QBR,2QBS,2VEU,2VEV,2VEW,2VEX,2VEY,2ZMM,2ZN7,3A5J,3CWE,3D9C,3EAX,
3EB1,3EU0,3I7Z,3I80,3SME,4BJO,4I8N,4QBW,4Y14,5K9V,5K9W,5KA0,5KA1,5T19,6B90,6NTP,6W30,7KEY,7KLX,7LFO,7MN9,7MNA,8DU7,8G65,8G67,8G68,8G69,8G6A,8SKL

> <UniProt (SwissProt) Recommended Name of Target Chain>
Tyrosine-protein phosphatase non-receptor type 1

> <UniProt (SwissProt) Entry Name of Target Chain>
PTN1_HUMAN

> <UniProt (SwissProt) Primary ID of Target Chain>
P18031

> <UniProt (SwissProt) Secondary ID(s) of Target Chain>
Q5TGD8 Q9BQV9 Q9NQQ4

$$$$
Molecule
  SciTegic10242319433D

 67 72  0  0  0  0            999 V2000
   10.3598   -0.3213   -0.1642 C   0  0
   10.2838   -1.7652   -0.4307 C   0  0
   11.3762   -2.5263   -0.3237 C   0  0
   12.6633   -1.9150    0.0491 C   0  0
   12.7173   -0.6185    0.3019 C   0  0
   11.5297    0.1877    0.1972 C   0  0
    9.0905    0.5467   -0.3991 C   0  0
   13.9387   -2.7071    0.1008 C   0  0  2  0  0  0
    8.8551    2.0135    0.2459 C   0  0  2  0  0  0
    7.4712    2.5977   -0.0997 N   0  0
    9.9787    3.0673    0.0434 C   0  0
   11.2210    2.7496   -0.0865 N   0  0
    9.8229    4.4967    0.0575 N   0  0
   11.1325    4.9769   -0.0687 C   0  0
   11.9526    3.8807   -0.1583 C   0  0
   13.2845    3.9705   -0.2681 C   0  0
   13.8617    5.3189   -0.3041 C   0  0
   13.0607    6.3918   -0.2221 C   0  0
   11.5835    6.2136   -0.0909 C   0  0
   13.7894   -4.4721    0.5361 S   0  0
   15.4437   -4.2979    0.0091 N   0  0
   16.0663   -3.0605    0.3440 C   0  0
   15.1198   -2.0170    0.7156 C   0  0
   14.5830   -5.6413    1.0934 O   0  0
   12.8192   -5.0532   -0.4599 O   0  0
   17.2570   -2.8175    0.1140 O   0  0
    6.1022    1.8091    0.7645 S   0  0
    4.4724    1.1287    0.4380 C   0  0
    6.4192    0.5420    0.0092 O   0  0
    5.3722    3.0274    0.2240 O   0  0
    3.3820    1.8853    0.3343 C   0  0
    2.0545    1.2559    0.1421 C   0  0
    1.9642   -0.1017    0.0804 C   0  0
    3.1593   -0.8988    0.1845 C   0  0
    4.3452   -0.3343    0.3534 C   0  0
    0.6450   -0.7366   -0.0580 C   0  0
   -0.4606   -0.0434   -0.1189 C   0  0
   -1.7638   -0.7181   -0.2287 C   0  0
   -1.8159   -2.0524   -0.2581 C   0  0
   -0.5845   -2.8350   -0.1878 C   0  0
    0.5978   -2.2192   -0.0930 C   0  0
    9.3334   -2.2158   -0.7164 H   0  0
   11.3152   -3.5982   -0.5120 H   0  0
   13.6629   -0.1593    0.5900 H   0  0
   11.5941    1.2522    0.4227 H   0  0
    9.0256    0.6864   -1.4782 H   0  0
    8.2518   -0.0614   -0.0600 H   0  0
   14.2222   -2.7536   -0.9506 H   0  0
    8.8243    1.8427    1.3220 H   0  0
    7.3129    2.4860   -1.1520 H   0  0
    8.9182    5.0614    0.1441 H   0  0
   13.9118    3.0812   -0.3281 H   0  0
   14.9399    5.4487   -0.3974 H   0  0
   13.4880    7.3941   -0.2511 H   0  0
   10.9102    7.0676   -0.0171 H   0  0
   15.9559   -5.0679   -0.5291 H   0  0
   15.0264   -1.8892    1.7940 H   0  0
   15.3411   -1.0551    0.2530 H   0  0
    3.4660    2.9706    0.3908 H   0  0
    1.1603    1.8724    0.0511 H   0  0
    3.0864   -1.9847    0.1231 H   0  0
    5.2350   -0.9592    0.4305 H   0  0
   -0.4173    1.0453   -0.0880 H   0  0
   -2.6813   -0.1323   -0.2857 H   0  0
   -2.7785   -2.5580   -0.3348 H   0  0
   -0.6300   -3.9238   -0.2127 H   0  0
    1.5185   -2.8004   -0.0419 H   0  0
  8 20  1  0
  4  5  2  0
  9 10  1  0
  2  3  2  0
  9 11  1  0
 20 21  1  0
 21 22  1  0
 22 23  1  0
  8 23  1  0
 11 12  2  0
 20 24  2  0
  5  6  1  0
 20 25  2  0
  6  1  2  0
 22 26  2  0
 12 15  1  0
 10 27  1  0
 14 13  1  0
 27 28  1  0
 13 11  1  0
 27 29  2  0
  1  2  1  0
 27 30  2  0
  1  7  1  0
 28 31  2  0
 14 15  1  0
 31 32  1  0
  3  4  1  0
 32 33  2  0
 15 16  2  0
 33 34  1  0
  4  8  1  0
 34 35  2  0
 35 28  1  0
 16 17  1  0
 33 36  1  0
 36 37  2  0
 17 18  2  0
 37 38  1  0
  9  7  1  0
 38 39  2  0
 18 19  1  0
 39 40  1  0
 19 14  2  0
 40 41  2  0
 41 36  1  0
  2 42  1  0
  3 43  1  0
  5 44  1  0
  6 45  1  0
  7 46  1  0
  7 47  1  0
  8 48  1  0
  9 49  1  0
 10 50  1  0
 13 51  1  0
 16 52  1  0
 17 53  1  0
 18 54  1  0
 19 55  1  0
 21 56  1  0
 23 57  1  0
 23 58  1  0
 31 59  1  0
 32 60  1  0
 34 61  1  0
 35 62  1  0
 37 63  1  0
 38 64  1  0
 39 65  1  0
 40 66  1  0
 41 67  1  0
M  END
> <Name>
Molecule

> <Clean Energy>
224.208

> <From>
www.bindingDB.org

> <BindingDB Reactant_set_id>
50350931

> <Ligand InChI>
InChI=1S/C30H26N4O5S2/c35-29-19-28(41(38,39)34-29)23-12-10-20(11-13-23)18-27(30-31-25-8-4-5-9-26(25)32-30)33-40(36,37)24-16-14-22(15-17-24)21-6-2-1-3-7-21/h1-17,27-28,33H,18-19H2,(H,31,32)(H,34,35)

> <Ligand InChI Key>
RWPOQZPGBVLTES-UHFFFAOYSA-N

> <BindingDB MonomerID>
50189653

> <BindingDB Ligand Name>
Biphenyl-4-sulfonic acid {1-(1H-benzoimidazol-2-yl)-2-[4-(1,1,3-trioxo-1lambda*6*-isothiazolidin-5-yl)-phenyl]-ethyl}-amide::CHEMBL211033

> <Target Name>
Tyrosine-protein phosphatase non-receptor type 1

> <Target Source Organism According to Curator or DataSource>
Homo sapiens

> <IC50 (nM)>
80

> <Curation/DataSource>
ChEMBL

> <Article DOI>
10.1021/jm0600904

> <BindingDB Entry DOI>
10.7270/Q2JQ10M8

> <PMID>
16789735

> <Authors>
Combs, AP; Zhu, W; Crawley, ML; Glass, B; Polam, P; Sparks, RB; Modi, D; Takvorian, A; McLaughlin, E; Yue, EW; Wasserman, Z; Bower, M; Wei, M; Rupar, M; Ala, PJ; Reid, BM; Ellis, D; Gonneville, L; Emm
, T; Taylor, N; Yeleswaram, S; Li, Y; Wynn, R; Burn, TC; Hollis, G; Liu, PC; Metcalf, B

> <Institution>
Incyte Corporation

> <Link to Ligand in BindingDB>
http://www.bindingdb.org/bind/chemsearch/marvin/MolStructure.jsp?monomerid=50189653

> <Link to Ligand-Target Pair in BindingDB>
http://www.bindingdb.org/jsp/dbsearch/PrimarySearch_ki.jsp?energyterm=kJ/mole&tag=pol&polymerid=2622&target=Tyrosine-protein+phosphatase+non-receptor+type+1&column=ki&startPg=0&Increment=50&submit=Sea
rch
http://www.bindingdb.org/jsp/dbsearch/PrimarySearch_ki.jsp?energyterm=kJ/mole&tag=r21&monomerid=50189653&enzyme=Tyrosine-protein+phosphatase+non-receptor+type+1&column=ki&startPg=0&Increment=50&submit
=Search

> <PubChem CID of Ligand>
21878530

> <PubChem SID of Ligand>
104073174

> <ChEMBL ID of Ligand>
CHEMBL211033

> <ZINC ID of Ligand>
ZINC36088926

> <Number of Protein Chains in Target (bigger than 1 implies a multichain complex)>
1

> <BindingDB Target Chain Sequence>
MEMEKEFEQIDKSGSWAAIYQDIRHEASDFPCRVAKLPKNKNRNRYRDVSPFDHSRIKLHQEDNDYINASLIKMEEAQRSYILTQGPLPNTCGHFWEMVWEQKSRGVVMLNRVMEKGSLKCAQYWPQKEEKEMIFEDTNLKLTLISEDIKSYYTVRQLELENLTTQETREILHFHYTTWPDFGVPESPASFLNFLFKVRE
SGSLSPEHGPVVVHCSAGIGRSGTFCLADTCLLLMDKRKDPSSVDIKKVLLEMRKFRMGLIQTADQLRFSYLAVIEGAKFIMGDSSVQDQWKELSHEDLEPPPEHIPPPPRPPKRILEPHNGKCREFFPNHQWVKEETQEDKDCPIKEEKGSPLNAAPYGIESMSQDTEVRSRVVGGSLRGAQAASPAKGEPSLPEKDED
HALSYWKPFLVNMCVATVLTAGAYLCYRFLFNSNT

> <PDB ID(s) of Target Chain>
1BZJ,1G7G,1GFY,1JF7,1KAK,1KAV,1LQF,1NL9,1NNY,1NO6,1NZ7,1OEM,1OEO,1OES,1OET,1OEU,1OEV,1ONY,1ONZ,1PH0,1PXH,1PYN,1Q1M,1Q6J,1Q6M,1Q6N,1Q6P,1Q6S,1Q6T,1QXK,1SUG,1T48,1T49,1T4J,1WAX,1XBO,2AZR,2B07,2BGD,2BGE,
2CM2,2CM3,2CM7,2CM8,2CMA,2CMB,2CMC,2CNE,2CNF,2CNG,2CNH,2CNI,2F6T,2F6V,2F6W,2F6Y,2F6Z,2F70,2F71,2FJN,2H4G,2H4K,2HB1,2HNP,2HNQ,2QBP,2QBQ,2QBR,2QBS,2VEU,2VEV,2VEW,2VEX,2VEY,2ZMM,2ZN7,3A5J,3CWE,3D9C,3EAX,
3EB1,3EU0,3I7Z,3I80,3SME,4BJO,4I8N,4QBW,4Y14,5K9V,5K9W,5KA0,5KA1,5T19,6B90,6NTP,6W30,7KEY,7KLX,7LFO,7MN9,7MNA,8DU7,8G65,8G67,8G68,8G69,8G6A,8SKL

> <UniProt (SwissProt) Recommended Name of Target Chain>
Tyrosine-protein phosphatase non-receptor type 1

> <UniProt (SwissProt) Entry Name of Target Chain>
PTN1_HUMAN

> <UniProt (SwissProt) Primary ID of Target Chain>
P18031

> <UniProt (SwissProt) Secondary ID(s) of Target Chain>
Q5TGD8 Q9BQV9 Q9NQQ4

$$$$
Molecule
  SciTegic10242319433D

 73 78  0  0  0  0            999 V2000
    1.1545   -6.3607   -0.0237 C   0  0
    1.7372   -5.1209   -0.0028 C   0  0
   -0.2453   -6.2334   -0.0206 O   0  0
    0.6114   -4.1784    0.0093 C   0  0
   -0.5554   -4.9254   -0.0024 C   0  0
    8.9983   -1.7713    0.3283 C   0  0
    7.3991   -3.5884    0.0507 C   0  0
    7.7386   -2.2059    0.3393 C   0  0
    3.2504   -4.7438    0.0050 C   0  0
    9.2830   -0.3984    0.6198 N   0  0
    1.8720   -7.7238   -0.0339 C   0  0
    7.1560    0.9672    0.0652 C   0  0
    5.9855   -3.9928    0.0438 C   0  0
   10.1142   -2.7734    0.0073 C   0  0
    8.3600   -4.4659   -0.2174 C   0  0
    6.6706    0.0944   -0.6602 O   0  0
    4.2217   -5.6515   -0.1245 C   0  0
    3.6595   -3.3307    0.1675 C   0  0
    4.9452   -2.9826    0.1927 C   0  0
    5.6421   -5.2686   -0.1145 C   0  0
    9.7633   -4.0392   -0.2368 C   0  0
    8.3393    0.6819    0.9972 C   0  0
    6.5867    2.2366    0.0636 O   0  0
    0.9798   -8.9694   -0.0183 C   0  0
   11.5558   -2.4966   -0.0455 O   0  0
    0.5909   -2.8443    0.0224 C   0  0
   12.0665   -1.1586    0.2230 C   0  0
   -1.7650   -4.3849   -0.0001 C   0  0
   12.2559    1.2160   -0.5165 C   0  0
   11.7587   -0.1504   -0.9164 C   0  0
    1.5651  -10.1669   -0.0134 C   0  0
   -0.4890   -8.8937   -0.0081 C   0  0
   11.4871    2.2820   -0.7331 C   0  0
   13.5680    1.3794    0.1239 C   0  0
   -0.7303   -2.1797    0.0269 C   0  0
   -1.8518   -2.9126    0.0170 C   0  0
   13.9877    2.5937    0.4808 C   0  0
   11.9444    3.6143   -0.3311 C   0  0
   -1.2243  -10.0035    0.0050 C   0  0
    0.7563  -11.3896    0.0013 C   0  0
   13.1356    3.7639    0.2457 C   0  0
   -0.5726  -11.3114    0.0098 C   0  0
    6.9389   -1.5027    0.5720 H   0  0
   10.3127   -0.1143    0.5569 H   0  0
    2.4851   -7.7678   -0.9341 H   0  0
    2.5139   -7.7660    0.8460 H   0  0
    8.1050   -5.5054   -0.4234 H   0  0
    3.9554   -6.7021   -0.2404 H   0  0
    2.8947   -2.5606    0.2685 H   0  0
    5.2209   -1.9364    0.3255 H   0  0
    6.4128   -6.0295   -0.2368 H   0  0
   10.5389   -4.7730   -0.4557 H   0  0
    8.9172    1.6026    1.0771 H   0  0
    7.9275    0.4249    1.9731 H   0  0
    6.2237    2.4591    1.0234 H   0  0
    1.5143   -2.2653    0.0295 H   0  0
   11.6116   -0.7918    1.1431 H   0  0
   13.1473   -1.2189    0.3503 H   0  0
   -2.6617   -5.0046   -0.0104 H   0  0
   10.6829   -0.1111   -1.0876 H   0  0
   12.2611   -0.4682   -1.8300 H   0  0
    2.6528  -10.2377   -0.0205 H   0  0
   -0.9798   -7.9205   -0.0113 H   0  0
   10.5147    2.1626   -1.2108 H   0  0
   14.1977    0.5088    0.3072 H   0  0
   -0.7917   -1.0915    0.0383 H   0  0
   -2.8253   -2.4223    0.0215 H   0  0
   14.9650    2.7166    0.9477 H   0  0
   11.3098    4.4835   -0.5041 H   0  0
   -2.3122   -9.9365    0.0121 H   0  0
    1.2439  -12.3644    0.0054 H   0  0
   13.4769    4.7555    0.5429 H   0  0
   -1.1733  -12.2209    0.0203 H   0  0
  2  1  2  0
  3  1  1  0
  4  2  1  0
  5  3  1  0
  6  8  2  0
  7 13  1  0
  8  7  1  0
  9  2  1  0
 10  6  1  0
 11  1  1  0
 12 22  1  0
 13 19  1  0
 14 21  2  0
 15  7  2  0
 16 12  2  0
 17  9  2  0
 18  9  1  0
 19 18  2  0
 20 17  1  0
 21 15  1  0
 22 10  1  0
 23 12  1  0
 24 11  1  0
 25 14  1  0
 26  4  2  0
 27 25  1  0
 28  5  2  0
 29 30  1  0
 30 27  1  0
 31 24  2  0
 32 24  1  0
 33 29  2  0
 34 29  1  0
 35 26  1  0
 36 28  1  0
 37 34  2  0
 38 33  1  0
 39 32  2  0
 40 31  1  0
 41 37  1  0
 42 39  1  0
  4  5  1  0
 35 36  2  0
 20 13  2  0
 40 42  2  0
  6 14  1  0
 38 41  2  0
  8 43  1  0
 10 44  1  0
 11 45  1  0
 11 46  1  0
 15 47  1  0
 17 48  1  0
 18 49  1  0
 19 50  1  0
 20 51  1  0
 21 52  1  0
 22 53  1  0
 22 54  1  0
 23 55  1  0
 26 56  1  0
 27 57  1  0
 27 58  1  0
 28 59  1  0
 30 60  1  0
 30 61  1  0
 31 62  1  0
 32 63  1  0
 33 64  1  0
 34 65  1  0
 35 66  1  0
 36 67  1  0
 37 68  1  0
 38 69  1  0
 39 70  1  0
 40 71  1  0
 41 72  1  0
 42 73  1  0
M  END
> <Name>
Molecule

> <Clean Energy>
45.2519

> <From>
www.bindingDB.org

> <BindingDB Reactant_set_id>
50154616

> <Ligand InChI>
InChI=1S/C37H31NO4/c39-36(40)25-38-32-24-30(19-20-34(32)41-22-21-26-9-3-1-4-10-26)28-15-17-29(18-16-28)37-31-13-7-8-14-33(31)42-35(37)23-27-11-5-2-6-12-27/h1-20,24,38H,21-23,25H2,(H,39,40)

> <Ligand InChI Key>
SPRHBAQSCORAQS-UHFFFAOYSA-N

> <BindingDB MonomerID>
50086932

> <BindingDB Ligand Name>
2-(4'-(2-benzylbenzofuran-3-yl)-4-phenethoxybiphenyl-3-ylamino)acetic acid::CHEMBL284763::[4''-(2-Benzyl-benzofuran-3-yl)-4-phenethyloxy-biphenyl-3-ylamino]-acetic acid::[4'-(2-Benzyl-benzofuran-3-yl)
-4-phenethyloxy-biphenyl-3-ylamino]-acetic acid

> <Target Name>
Tyrosine-protein phosphatase non-receptor type 1

> <Target Source Organism According to Curator or DataSource>
Homo sapiens

> <IC50 (nM)>
82

> <Curation/DataSource>
ChEMBL

> <Article DOI>
10.1021/jm990560c

> <BindingDB Entry DOI>
10.7270/Q2W958FT

> <PMID>
10753467

> <Authors>
Malamas, MS; Sredy, J; Moxham, C; Katz, A; Xu, W; McDevitt, R; Adebayo, FO; Sawicki, DR; Seestaller, L; Sullivan, D; Taylor, JR

> <Institution>
Wyeth-Ayerst Research

> <Link to Ligand in BindingDB>
http://www.bindingdb.org/bind/chemsearch/marvin/MolStructure.jsp?monomerid=50086932

> <Link to Ligand-Target Pair in BindingDB>
http://www.bindingdb.org/jsp/dbsearch/PrimarySearch_ki.jsp?energyterm=kJ/mole&tag=pol&polymerid=2622&target=Tyrosine-protein+phosphatase+non-receptor+type+1&column=ki&startPg=0&Increment=50&submit=Sea
rch
http://www.bindingdb.org/jsp/dbsearch/PrimarySearch_ki.jsp?energyterm=kJ/mole&tag=r21&monomerid=50086932&enzyme=Tyrosine-protein+phosphatase+non-receptor+type+1&column=ki&startPg=0&Increment=50&submit
=Search

> <PubChem CID of Ligand>
10626561

> <PubChem SID of Ligand>
103986043

> <ChEMBL ID of Ligand>
CHEMBL284763

> <ZINC ID of Ligand>
ZINC53084463

> <Number of Protein Chains in Target (bigger than 1 implies a multichain complex)>
1

> <BindingDB Target Chain Sequence>
MEMEKEFEQIDKSGSWAAIYQDIRHEASDFPCRVAKLPKNKNRNRYRDVSPFDHSRIKLHQEDNDYINASLIKMEEAQRSYILTQGPLPNTCGHFWEMVWEQKSRGVVMLNRVMEKGSLKCAQYWPQKEEKEMIFEDTNLKLTLISEDIKSYYTVRQLELENLTTQETREILHFHYTTWPDFGVPESPASFLNFLFKVRE
SGSLSPEHGPVVVHCSAGIGRSGTFCLADTCLLLMDKRKDPSSVDIKKVLLEMRKFRMGLIQTADQLRFSYLAVIEGAKFIMGDSSVQDQWKELSHEDLEPPPEHIPPPPRPPKRILEPHNGKCREFFPNHQWVKEETQEDKDCPIKEEKGSPLNAAPYGIESMSQDTEVRSRVVGGSLRGAQAASPAKGEPSLPEKDED
HALSYWKPFLVNMCVATVLTAGAYLCYRFLFNSNT

> <PDB ID(s) of Target Chain>
1BZJ,1G7G,1GFY,1JF7,1KAK,1KAV,1LQF,1NL9,1NNY,1NO6,1NZ7,1OEM,1OEO,1OES,1OET,1OEU,1OEV,1ONY,1ONZ,1PH0,1PXH,1PYN,1Q1M,1Q6J,1Q6M,1Q6N,1Q6P,1Q6S,1Q6T,1QXK,1SUG,1T48,1T49,1T4J,1WAX,1XBO,2AZR,2B07,2BGD,2BGE,
2CM2,2CM3,2CM7,2CM8,2CMA,2CMB,2CMC,2CNE,2CNF,2CNG,2CNH,2CNI,2F6T,2F6V,2F6W,2F6Y,2F6Z,2F70,2F71,2FJN,2H4G,2H4K,2HB1,2HNP,2HNQ,2QBP,2QBQ,2QBR,2QBS,2VEU,2VEV,2VEW,2VEX,2VEY,2ZMM,2ZN7,3A5J,3CWE,3D9C,3EAX,
3EB1,3EU0,3I7Z,3I80,3SME,4BJO,4I8N,4QBW,4Y14,5K9V,5K9W,5KA0,5KA1,5T19,6B90,6NTP,6W30,7KEY,7KLX,7LFO,7MN9,7MNA,8DU7,8G65,8G67,8G68,8G69,8G6A,8SKL

> <UniProt (SwissProt) Recommended Name of Target Chain>
Tyrosine-protein phosphatase non-receptor type 1

> <UniProt (SwissProt) Entry Name of Target Chain>
PTN1_HUMAN

> <UniProt (SwissProt) Primary ID of Target Chain>
P18031

> <UniProt (SwissProt) Secondary ID(s) of Target Chain>
Q5TGD8 Q9BQV9 Q9NQQ4

$$$$
Molecule
  SciTegic10242319433D

 52 57  0  0  0  0            999 V2000
    5.8681   -1.3617   -0.0113 C   0  0
    5.4341   -2.7979   -0.0065 C   0  0
    6.3435   -3.7778    0.0002 C   0  0
    7.1690   -1.0440   -0.0095 C   0  0
    8.8761   -4.2255    0.0107 O   0  0
    8.1187   -2.1354   -0.0020 C   0  0
    7.7508   -3.4012    0.0029 C   0  0
    9.5483   -2.1038    0.0020 C   0  0
    9.9679   -3.3478    0.0101 C   0  0
   11.3881   -3.6674    0.0169 C   0  0
   12.2610   -2.6458    0.0146 C   0  0
   11.7753   -1.2219    0.0040 C   0  0
   10.4558   -0.9678   -0.0022 C   0  0
    5.9248   -5.1815    0.0039 C   0  0
    4.5677   -5.5003    0.0009 O   0  0
    6.7702   -6.0820    0.0085 O   0  0
   12.7333   -0.0779   -0.0033 C   0  0
   14.2329   -0.2056    0.0086 N   0  0
   14.8028    0.9513   -0.0054 C   0  0
   13.6434    2.1385   -0.0307 S   0  0
   12.2886    1.1866   -0.0246 C   0  0
   16.2622    1.2529   -0.0011 C   0  0
   17.1905    0.2940    0.0316 C   0  0
   18.6328    0.6641    0.0340 C   0  0
   18.9981    1.9500    0.0019 C   0  0
   17.9714    2.9888   -0.0345 C   0  0
   16.6810    2.6602   -0.0351 C   0  0
   20.3634    2.3248    0.0027 N   0  0
   21.4457    1.3737    0.0473 C   0  0
   22.6407    2.2732   -0.3493 C   0  0
   22.2708    3.5742    0.3580 C   0  0
   20.7860    3.7058   -0.0416 C   0  0
    5.1184   -0.5705   -0.0162 H   0  0
    4.3722   -3.0436   -0.0084 H   0  0
    7.4990   -0.0052   -0.0135 H   0  0
   11.7322   -4.7017    0.0238 H   0  0
   13.3316   -2.8507    0.0204 H   0  0
   10.0787    0.0549   -0.0100 H   0  0
    4.3420   -6.0642   -0.8556 H   0  0
   11.2506    1.5191   -0.0357 H   0  0
   16.8941   -0.7546    0.0566 H   0  0
   19.3935   -0.1160    0.0619 H   0  0
   18.2633    4.0386   -0.0612 H   0  0
   15.9258    3.4458   -0.0612 H   0  0
   21.5721    0.9570    1.0466 H   0  0
   21.2981    0.5649   -0.6682 H   0  0
   23.5843    1.8712    0.0195 H   0  0
   22.6997    2.4074   -1.4294 H   0  0
   22.3898    3.4916    1.4383 H   0  0
   22.8614    4.4131   -0.0101 H   0  0
   20.2325    4.3165    0.6717 H   0  0
   20.6767    4.1255   -1.0417 H   0  0
 14 15  1  0
 14 16  2  0
  3 14  1  0
 20 21  1  0
  7  5  1  0
  1  2  1  0
 18 19  2  0
  6  4  1  0
  8  9  2  0
  4  1  2  0
 17 18  1  0
 19 20  1  0
 21 17  2  0
 12 17  1  0
  9 10  1  0
  6  7  2  0
 22 23  2  0
 10 11  2  0
 23 24  1  0
 24 25  2  0
 11 12  1  0
 25 26  1  0
  2  3  2  0
 26 27  2  0
 27 22  1  0
 19 22  1  0
 12 13  2  0
 25 28  1  0
 28 29  1  0
 13  8  1  0
  3  7  1  0
  5  9  1  0
  8  6  1  0
 29 30  1  0
 30 31  1  0
 31 32  1  0
 32 28  1  0
  1 33  1  0
  2 34  1  0
  4 35  1  0
 10 36  1  0
 11 37  1  0
 13 38  1  0
 15 39  1  0
 21 40  1  0
 23 41  1  0
 24 42  1  0
 26 43  1  0
 27 44  1  0
 29 45  1  0
 29 46  1  0
 30 47  1  0
 30 48  1  0
 31 49  1  0
 31 50  1  0
 32 51  1  0
 32 52  1  0
M  END
> <Name>
Molecule

> <Clean Energy>
53.0854

> <From>
www.bindingDB.org

> <BindingDB Reactant_set_id>
50597559

> <Ligand InChI>
InChI=1S/C26H20N2O3S/c29-26(30)20-5-3-4-19-21-14-17(8-11-23(21)31-24(19)20)22-15-32-25(27-22)16-6-9-18(10-7-16)28-12-1-2-13-28/h3-11,14-15H,1-2,12-13H2,(H,29,30)

> <Ligand InChI Key>
NMYDRYXXJUMSIV-UHFFFAOYSA-N

> <BindingDB MonomerID>
50326155

> <BindingDB Ligand Name>
8-{2-[4-(Pyrrolidin-1-yl)phenyl]thiazol-4-yl}dibenzo[b,d]furan-4-carboxylic acid::CHEMBL1242362

> <Target Name>
Tyrosine-protein phosphatase non-receptor type 1

> <Target Source Organism According to Curator or DataSource>
Homo sapiens

> <IC50 (nM)>
82

> <Curation/DataSource>
ChEMBL

> <Article DOI>
10.1016/j.ejmech.2010.05.020

> <BindingDB Entry DOI>
10.7270/Q24Q7V6S

> <PMID>
20627471

> <Authors>
Lakshminarayana, N; Prasad, YR; Gharat, L; Thomas, A; Narayanan, S; Raghuram, A; Srinivasan, CV; Gopalan, B

> <Institution>
Glenmark Research Center

> <Link to Ligand in BindingDB>
http://www.bindingdb.org/bind/chemsearch/marvin/MolStructure.jsp?monomerid=50326155

> <Link to Ligand-Target Pair in BindingDB>
http://www.bindingdb.org/jsp/dbsearch/PrimarySearch_ki.jsp?energyterm=kJ/mole&tag=pol&polymerid=2622&target=Tyrosine-protein+phosphatase+non-receptor+type+1&column=ki&startPg=0&Increment=50&submit=Sea
rch
http://www.bindingdb.org/jsp/dbsearch/PrimarySearch_ki.jsp?energyterm=kJ/mole&tag=r21&monomerid=50326155&enzyme=Tyrosine-protein+phosphatase+non-receptor+type+1&column=ki&startPg=0&Increment=50&submit
=Search

> <PubChem CID of Ligand>
46933145

> <PubChem SID of Ligand>
123105270

> <ChEMBL ID of Ligand>
CHEMBL1242362

> <ZINC ID of Ligand>
ZINC64521222

> <Number of Protein Chains in Target (bigger than 1 implies a multichain complex)>
1

> <BindingDB Target Chain Sequence>
MEMEKEFEQIDKSGSWAAIYQDIRHEASDFPCRVAKLPKNKNRNRYRDVSPFDHSRIKLHQEDNDYINASLIKMEEAQRSYILTQGPLPNTCGHFWEMVWEQKSRGVVMLNRVMEKGSLKCAQYWPQKEEKEMIFEDTNLKLTLISEDIKSYYTVRQLELENLTTQETREILHFHYTTWPDFGVPESPASFLNFLFKVRE
SGSLSPEHGPVVVHCSAGIGRSGTFCLADTCLLLMDKRKDPSSVDIKKVLLEMRKFRMGLIQTADQLRFSYLAVIEGAKFIMGDSSVQDQWKELSHEDLEPPPEHIPPPPRPPKRILEPHNGKCREFFPNHQWVKEETQEDKDCPIKEEKGSPLNAAPYGIESMSQDTEVRSRVVGGSLRGAQAASPAKGEPSLPEKDED
HALSYWKPFLVNMCVATVLTAGAYLCYRFLFNSNT

> <PDB ID(s) of Target Chain>
1BZJ,1G7G,1GFY,1JF7,1KAK,1KAV,1LQF,1NL9,1NNY,1NO6,1NZ7,1OEM,1OEO,1OES,1OET,1OEU,1OEV,1ONY,1ONZ,1PH0,1PXH,1PYN,1Q1M,1Q6J,1Q6M,1Q6N,1Q6P,1Q6S,1Q6T,1QXK,1SUG,1T48,1T49,1T4J,1WAX,1XBO,2AZR,2B07,2BGD,2BGE,
2CM2,2CM3,2CM7,2CM8,2CMA,2CMB,2CMC,2CNE,2CNF,2CNG,2CNH,2CNI,2F6T,2F6V,2F6W,2F6Y,2F6Z,2F70,2F71,2FJN,2H4G,2H4K,2HB1,2HNP,2HNQ,2QBP,2QBQ,2QBR,2QBS,2VEU,2VEV,2VEW,2VEX,2VEY,2ZMM,2ZN7,3A5J,3CWE,3D9C,3EAX,
3EB1,3EU0,3I7Z,3I80,3SME,4BJO,4I8N,4QBW,4Y14,5K9V,5K9W,5KA0,5KA1,5T19,6B90,6NTP,6W30,7KEY,7KLX,7LFO,7MN9,7MNA,8DU7,8G65,8G67,8G68,8G69,8G6A,8SKL

> <UniProt (SwissProt) Recommended Name of Target Chain>
Tyrosine-protein phosphatase non-receptor type 1

> <UniProt (SwissProt) Entry Name of Target Chain>
PTN1_HUMAN

> <UniProt (SwissProt) Primary ID of Target Chain>
P18031

> <UniProt (SwissProt) Secondary ID(s) of Target Chain>
Q5TGD8 Q9BQV9 Q9NQQ4

$$$$
Molecule
  SciTegic10242319433D

 76 81  0  0  0  0            999 V2000
    0.9424   -5.2835    0.0190 C   0  0
    1.5016   -4.0248   -0.0104 C   0  0
   -0.7623   -5.1299    0.0297 S   0  0
    0.3628   -2.9365   -0.0211 C   0  0
   -0.9297   -3.5178    0.0022 C   0  0
    1.6774   -6.6686    0.0316 C   0  0
   13.3769   -0.1536    0.0354 C   0  0
   11.8746    0.0219   -0.1784 C   0  0  1  0  0  0
    0.8087   -7.9661    0.0208 C   0  0
    1.4207   -9.1528    0.0144 C   0  0
    3.0369   -3.6461   -0.0313 C   0  0
    0.6217  -10.4007    0.0040 C   0  0
   11.3288   -1.3266    0.0881 O   0  0
    5.7801   -2.8588   -0.0716 C   0  0
    7.2034   -2.4350   -0.0686 C   0  0
   11.2790    1.2246    0.6729 C   0  0
   14.0547    0.7187    0.5887 O   0  0
    4.0173   -4.5497    0.1003 C   0  0
    3.4522   -2.2331   -0.1998 C   0  0
   -0.6603   -7.9413    0.0166 C   0  0
    5.4445   -4.1400    0.0877 C   0  0
    4.7324   -1.8674   -0.2253 C   0  0
    8.1605   -3.3204    0.1935 C   0  0
    7.5714   -1.0312   -0.3404 C   0  0
   -0.7117  -10.3515    0.0009 C   0  0
    9.9183   -1.6332   -0.0044 C   0  0
   13.9721   -1.3660   -0.2949 O   0  0
   -1.3760   -9.0618    0.0071 C   0  0
    9.5652   -2.8985    0.2322 C   0  0
    8.8540   -0.6508   -0.3213 C   0  0
    2.8212   -9.2082    0.0169 O   0  0
   11.7464    2.6600    0.2906 C   0  0
    0.4800   -1.6112   -0.0386 C   0  0
   -1.4901  -11.5245   -0.0081 O   0  0
   -2.0596   -2.8220    0.0042 C   0  0
   11.0832    3.6973    0.8029 C   0  0
   12.8838    2.9284   -0.6196 C   0  0
    3.2807  -10.5691    0.0078 C   0  0
   -0.6722  -12.7029   -0.0124 C   0  0
   -0.7471   -0.7829   -0.0390 C   0  0
   -1.9541   -1.3603   -0.0192 C   0  0
   13.2480    4.1785   -0.9036 C   0  0
   11.4779    5.0749    0.4760 C   0  0
   12.5116    5.3030   -0.3314 C   0  0
    2.3184   -6.7020   -0.8493 H   0  0
    2.2927   -6.6995    0.9308 H   0  0
   11.7113    0.2459   -1.2326 H   0  0
    1.1272  -11.3664   -0.0011 H   0  0
   10.1942    1.1940    0.5710 H   0  0
   11.5515    1.0566    1.7148 H   0  0
    3.7631   -5.6031    0.2187 H   0  0
    2.6837   -1.4675   -0.3065 H   0  0
   -1.1759   -6.9810    0.0214 H   0  0
    6.2241   -4.8920    0.2095 H   0  0
    4.9943   -0.8183   -0.3623 H   0  0
    7.9007   -4.3624    0.3801 H   0  0
    6.7931   -0.2998   -0.5580 H   0  0
   13.5363   -2.1359    0.2707 H   0  0
   -2.4648   -9.0112    0.0039 H   0  0
   10.3369   -3.6340    0.4590 H   0  0
    9.1173    0.3843   -0.5393 H   0  0
    1.4641   -1.1426   -0.0526 H   0  0
   -3.0297   -3.3187    0.0224 H   0  0
   10.2398    3.5218    1.4708 H   0  0
   13.4287    2.0944   -1.0620 H   0  0
    4.3706  -10.5851    0.0100 H   0  0
    2.9123  -11.0716   -0.8865 H   0  0
    2.9086  -11.0847    0.8932 H   0  0
   -1.3087  -13.5876   -0.0193 H   0  0
   -0.0454  -12.7139    0.8794 H   0  0
   -0.0400  -12.7038   -0.9004 H   0  0
   -0.6669    0.3040   -0.0555 H   0  0
   -2.8547   -0.7464   -0.0203 H   0  0
   14.0960    4.3620   -1.5633 H   0  0
   10.9220    5.9131    0.8962 H   0  0
   12.8076    6.3257   -0.5648 H   0  0
  2  1  2  0
  3  1  1  0
  4  2  1  0
  5  3  1  0
  6  1  1  0
  7  8  1  0
 13  8  1  0
  9  6  1  0
 10  9  2  0
 11  2  1  0
 12 10  1  0
 13 26  1  0
 14 22  1  0
 15 14  1  0
 16  8  1  0
 17  7  2  0
 18 11  2  0
 19 11  1  0
 20  9  1  0
 21 18  1  0
 22 19  2  0
 23 15  2  0
 24 15  1  0
 25 28  1  0
 26 30  1  0
 27  7  1  0
 28 20  2  0
 29 23  1  0
 30 24  2  0
 31 10  1  0
 32 16  1  0
 33  4  2  0
 34 25  1  0
 35  5  2  0
 36 32  2  0
 37 32  1  0
 38 31  1  0
 39 34  1  0
 40 33  1  0
 41 35  1  0
 42 37  2  0
 43 36  1  0
 44 42  1  0
  4  5  1  0
 40 41  2  0
 21 14  2  0
 12 25  2  0
 29 26  2  0
 43 44  2  0
  6 45  1  0
  6 46  1  0
  8 47  1  0
 12 48  1  0
 16 49  1  0
 16 50  1  0
 18 51  1  0
 19 52  1  0
 20 53  1  0
 21 54  1  0
 22 55  1  0
 23 56  1  0
 24 57  1  0
 27 58  1  0
 28 59  1  0
 29 60  1  0
 30 61  1  0
 33 62  1  0
 35 63  1  0
 36 64  1  0
 37 65  1  0
 38 66  1  0
 38 67  1  0
 38 68  1  0
 39 69  1  0
 39 70  1  0
 39 71  1  0
 40 72  1  0
 41 73  1  0
 42 74  1  0
 43 75  1  0
 44 76  1  0
M  END
> <Name>
Molecule

> <Clean Energy>
46.4537

> <From>
www.bindingDB.org

> <BindingDB Reactant_set_id>
50154667

> <Ligand InChI>
InChI=1S/C38H32O5S/c1-41-31-21-18-29(33(24-31)42-2)23-36-37(32-10-6-7-11-35(32)44-36)28-14-12-26(13-15-28)27-16-19-30(20-17-27)43-34(38(39)40)22-25-8-4-3-5-9-25/h3-21,24,34H,22-23H2,1-2H3,(H,39,40)

> <Ligand InChI Key>
HGPZRAKCMMNFNO-UHFFFAOYSA-N

> <BindingDB MonomerID>
50086977

> <BindingDB Ligand Name>
2-{4'-[2-(2,4-Dimethoxy-benzyl)-benzo[b]thiophen-3-yl]-biphenyl-4-yloxy}-3-phenyl-propionic acid::CHEMBL24146

> <Target Name>
Tyrosine-protein phosphatase non-receptor type 1

> <Target Source Organism According to Curator or DataSource>
Homo sapiens

> <IC50 (nM)>
85

> <Curation/DataSource>
ChEMBL

> <Article DOI>
10.1021/jm990560c

> <BindingDB Entry DOI>
10.7270/Q2W958FT

> <PMID>
10753467

> <Authors>
Malamas, MS; Sredy, J; Moxham, C; Katz, A; Xu, W; McDevitt, R; Adebayo, FO; Sawicki, DR; Seestaller, L; Sullivan, D; Taylor, JR

> <Institution>
Wyeth-Ayerst Research

> <Link to Ligand in BindingDB>
http://www.bindingdb.org/bind/chemsearch/marvin/MolStructure.jsp?monomerid=50086977

> <Link to Ligand-Target Pair in BindingDB>
http://www.bindingdb.org/jsp/dbsearch/PrimarySearch_ki.jsp?energyterm=kJ/mole&tag=pol&polymerid=2622&target=Tyrosine-protein+phosphatase+non-receptor+type+1&column=ki&startPg=0&Increment=50&submit=Sea
rch
http://www.bindingdb.org/jsp/dbsearch/PrimarySearch_ki.jsp?energyterm=kJ/mole&tag=r21&monomerid=50086977&enzyme=Tyrosine-protein+phosphatase+non-receptor+type+1&column=ki&startPg=0&Increment=50&submit
=Search

> <PubChem CID of Ligand>
22462612

> <PubChem SID of Ligand>
103986088

> <ChEMBL ID of Ligand>
CHEMBL24146

> <ZINC ID of Ligand>
ZINC28757804

> <Number of Protein Chains in Target (bigger than 1 implies a multichain complex)>
1

> <BindingDB Target Chain Sequence>
MEMEKEFEQIDKSGSWAAIYQDIRHEASDFPCRVAKLPKNKNRNRYRDVSPFDHSRIKLHQEDNDYINASLIKMEEAQRSYILTQGPLPNTCGHFWEMVWEQKSRGVVMLNRVMEKGSLKCAQYWPQKEEKEMIFEDTNLKLTLISEDIKSYYTVRQLELENLTTQETREILHFHYTTWPDFGVPESPASFLNFLFKVRE
SGSLSPEHGPVVVHCSAGIGRSGTFCLADTCLLLMDKRKDPSSVDIKKVLLEMRKFRMGLIQTADQLRFSYLAVIEGAKFIMGDSSVQDQWKELSHEDLEPPPEHIPPPPRPPKRILEPHNGKCREFFPNHQWVKEETQEDKDCPIKEEKGSPLNAAPYGIESMSQDTEVRSRVVGGSLRGAQAASPAKGEPSLPEKDED
HALSYWKPFLVNMCVATVLTAGAYLCYRFLFNSNT

> <PDB ID(s) of Target Chain>
1BZJ,1G7G,1GFY,1JF7,1KAK,1KAV,1LQF,1NL9,1NNY,1NO6,1NZ7,1OEM,1OEO,1OES,1OET,1OEU,1OEV,1ONY,1ONZ,1PH0,1PXH,1PYN,1Q1M,1Q6J,1Q6M,1Q6N,1Q6P,1Q6S,1Q6T,1QXK,1SUG,1T48,1T49,1T4J,1WAX,1XBO,2AZR,2B07,2BGD,2BGE,
2CM2,2CM3,2CM7,2CM8,2CMA,2CMB,2CMC,2CNE,2CNF,2CNG,2CNH,2CNI,2F6T,2F6V,2F6W,2F6Y,2F6Z,2F70,2F71,2FJN,2H4G,2H4K,2HB1,2HNP,2HNQ,2QBP,2QBQ,2QBR,2QBS,2VEU,2VEV,2VEW,2VEX,2VEY,2ZMM,2ZN7,3A5J,3CWE,3D9C,3EAX,
3EB1,3EU0,3I7Z,3I80,3SME,4BJO,4I8N,4QBW,4Y14,5K9V,5K9W,5KA0,5KA1,5T19,6B90,6NTP,6W30,7KEY,7KLX,7LFO,7MN9,7MNA,8DU7,8G65,8G67,8G68,8G69,8G6A,8SKL

> <UniProt (SwissProt) Recommended Name of Target Chain>
Tyrosine-protein phosphatase non-receptor type 1

> <UniProt (SwissProt) Entry Name of Target Chain>
PTN1_HUMAN

> <UniProt (SwissProt) Primary ID of Target Chain>
P18031

> <UniProt (SwissProt) Secondary ID(s) of Target Chain>
Q5TGD8 Q9BQV9 Q9NQQ4

$$$$
Molecule
  SciTegic10242319433D

 60 64  0  0  0  0            999 V2000
    8.5604   -8.0714   -0.1458 C   0  0
    8.5200   -9.4477   -0.6625 C   0  0
    9.5734  -10.2524   -0.5181 C   0  0
   10.7847   -9.7540    0.1456 C   0  0
   10.8118   -8.5130    0.6139 C   0  0
    9.6591   -7.6543    0.4732 C   0  0
    7.3259   -7.1780   -0.3590 C   0  0
   12.0145  -10.6045    0.3139 C   0  0  1  0  0  0
    7.1571   -5.7770    0.4005 C   0  0  2  0  0  0
    5.7758   -5.1602    0.2180 N   0  0
    8.2856   -4.7426    0.1642 C   0  0
    9.4878   -5.0592   -0.1195 N   0  0
    8.1411   -3.3114    0.2968 N   0  0
    9.4226   -2.8411    0.0700 C   0  0
   10.2433   -3.9185   -0.1866 C   0  0
   11.5363   -3.8177   -0.4208 C   0  0
   12.1198   -2.4632   -0.4187 C   0  0
   11.3335   -1.4024   -0.1788 C   0  0
    9.8837   -1.5888    0.0890 C   0  0
   11.9339  -12.3066   -0.3662 S   0  0
   13.6522  -12.1725   -0.0225 N   0  0
   14.2119  -10.9084   -0.0036 C   0  0
   13.2581   -9.8480   -0.1377 C   0  0
   12.4724  -13.6565    0.0701 O   0  0
   10.7974  -12.5885    0.5961 O   0  0
   15.4192  -10.7051    0.1660 O   0  0
    4.4928   -6.2206    0.8626 S   0  0
    2.8132   -6.6550    0.4600 C   0  0
    4.6102   -6.9786   -0.4429 O   0  0
    3.8114   -4.8840    1.0912 O   0  0
    1.8104   -5.7754    0.4840 C   0  0
    0.4478   -6.2228    0.1216 C   0  0
    0.2269   -7.4902   -0.2252 C   0  0
    1.3263   -8.4443   -0.2466 C   0  0
    2.5518   -8.0472    0.0783 C   0  0
   -0.6958   -5.2535    0.1347 C   0  0
    7.6245   -9.8118   -1.1661 H   0  0
    9.5355  -11.2759   -0.8911 H   0  0
   11.7090   -8.1394    1.1074 H   0  0
    9.6913   -6.6448    0.8830 H   0  0
    6.4605   -7.7812   -0.0846 H   0  0
    7.2903   -6.9545   -1.4252 H   0  0
   12.1307  -10.7309    1.3903 H   0  0
    7.2178   -6.0225    1.4607 H   0  0
    5.6022   -5.0001   -0.8256 H   0  0
    7.2569   -2.7505    0.5171 H   0  0
   12.1493   -4.6993   -0.6084 H   0  0
   13.1838   -2.3244   -0.6108 H   0  0
   11.7602   -0.3994   -0.1805 H   0  0
    9.2275   -0.7423    0.2914 H   0  0
   14.2466  -13.0420    0.1663 H   0  0
   13.4861   -9.0057    0.5155 H   0  0
   13.1748   -9.4983   -1.1667 H   0  0
    1.9931   -4.7389    0.7674 H   0  0
   -0.7790   -7.8133   -0.4934 H   0  0
    1.1446   -9.4814   -0.5285 H   0  0
    3.3727   -8.7642    0.0612 H   0  0
   -1.6113   -5.7669   -0.1590 H   0  0
   -0.4938   -4.4429   -0.5656 H   0  0
   -0.8149   -4.8449    1.1382 H   0  0
 17 18  2  0
  9  7  1  0
 18 19  1  0
 19 14  2  0
  8 20  1  0
  4  5  2  0
  9 10  1  0
  2  3  2  0
  9 11  1  0
 20 21  1  0
 21 22  1  0
 22 23  1  0
  8 23  1  0
 11 12  2  0
 20 24  2  0
  5  6  1  0
 20 25  2  0
  6  1  2  0
 22 26  2  0
 12 15  1  0
 10 27  1  0
 14 13  1  0
 27 28  1  0
 13 11  1  0
 27 29  2  0
  1  2  1  0
 27 30  2  0
  1  7  1  0
 28 31  2  0
 14 15  1  0
 31 32  1  0
  3  4  1  0
 32 33  2  0
 15 16  2  0
 33 34  1  0
  4  8  1  0
 34 35  2  0
 35 28  1  0
 16 17  1  0
 32 36  1  0
  2 37  1  0
  3 38  1  0
  5 39  1  0
  6 40  1  0
  7 41  1  0
  7 42  1  0
  8 43  1  0
  9 44  1  0
 10 45  1  0
 13 46  1  0
 16 47  1  0
 17 48  1  0
 18 49  1  0
 19 50  1  0
 21 51  1  0
 23 52  1  0
 23 53  1  0
 31 54  1  0
 33 55  1  0
 34 56  1  0
 35 57  1  0
 36 58  1  0
 36 59  1  0
 36 60  1  0
M  END
> <Name>
Molecule

> <Clean Energy>
224.256

> <From>
www.bindingDB.org

> <BindingDB Reactant_set_id>
50350929

> <Ligand InChI>
InChI=1S/C25H24N4O5S2/c1-16-5-4-6-19(13-16)35(31,32)28-22(25-26-20-7-2-3-8-21(20)27-25)14-17-9-11-18(12-10-17)23-15-24(30)29-36(23,33)34/h2-13,22-23,28H,14-15H2,1H3,(H,26,27)(H,29,30)

> <Ligand InChI Key>
SXGDVRXCZSTLAD-UHFFFAOYSA-N

> <BindingDB MonomerID>
50189651

> <BindingDB Ligand Name>
CHEMBL211076::N-{1-(1H-benzoimidazol-2-yl)-2-[4-(1,1,3-trioxo-1lambda*6*-isothiazolidin-5-yl)-phenyl]-ethyl}-3-methyl-benzenesulfonamide

> <Target Name>
Tyrosine-protein phosphatase non-receptor type 1

> <Target Source Organism According to Curator or DataSource>
Homo sapiens

> <IC50 (nM)>
85

> <Curation/DataSource>
ChEMBL

> <Article DOI>
10.1021/jm0600904

> <BindingDB Entry DOI>
10.7270/Q2JQ10M8

> <PMID>
16789735

> <Authors>
Combs, AP; Zhu, W; Crawley, ML; Glass, B; Polam, P; Sparks, RB; Modi, D; Takvorian, A; McLaughlin, E; Yue, EW; Wasserman, Z; Bower, M; Wei, M; Rupar, M; Ala, PJ; Reid, BM; Ellis, D; Gonneville, L; Emm
, T; Taylor, N; Yeleswaram, S; Li, Y; Wynn, R; Burn, TC; Hollis, G; Liu, PC; Metcalf, B

> <Institution>
Incyte Corporation

> <Link to Ligand in BindingDB>
http://www.bindingdb.org/bind/chemsearch/marvin/MolStructure.jsp?monomerid=50189651

> <Link to Ligand-Target Pair in BindingDB>
http://www.bindingdb.org/jsp/dbsearch/PrimarySearch_ki.jsp?energyterm=kJ/mole&tag=pol&polymerid=2622&target=Tyrosine-protein+phosphatase+non-receptor+type+1&column=ki&startPg=0&Increment=50&submit=Sea
rch
http://www.bindingdb.org/jsp/dbsearch/PrimarySearch_ki.jsp?energyterm=kJ/mole&tag=r21&monomerid=50189651&enzyme=Tyrosine-protein+phosphatase+non-receptor+type+1&column=ki&startPg=0&Increment=50&submit
=Search

> <PubChem CID of Ligand>
21879220

> <PubChem SID of Ligand>
104073172

> <ChEMBL ID of Ligand>
CHEMBL211076

> <ZINC ID of Ligand>
ZINC36088850

> <Number of Protein Chains in Target (bigger than 1 implies a multichain complex)>
1

> <BindingDB Target Chain Sequence>
MEMEKEFEQIDKSGSWAAIYQDIRHEASDFPCRVAKLPKNKNRNRYRDVSPFDHSRIKLHQEDNDYINASLIKMEEAQRSYILTQGPLPNTCGHFWEMVWEQKSRGVVMLNRVMEKGSLKCAQYWPQKEEKEMIFEDTNLKLTLISEDIKSYYTVRQLELENLTTQETREILHFHYTTWPDFGVPESPASFLNFLFKVRE
SGSLSPEHGPVVVHCSAGIGRSGTFCLADTCLLLMDKRKDPSSVDIKKVLLEMRKFRMGLIQTADQLRFSYLAVIEGAKFIMGDSSVQDQWKELSHEDLEPPPEHIPPPPRPPKRILEPHNGKCREFFPNHQWVKEETQEDKDCPIKEEKGSPLNAAPYGIESMSQDTEVRSRVVGGSLRGAQAASPAKGEPSLPEKDED
HALSYWKPFLVNMCVATVLTAGAYLCYRFLFNSNT

> <PDB ID(s) of Target Chain>
1BZJ,1G7G,1GFY,1JF7,1KAK,1KAV,1LQF,1NL9,1NNY,1NO6,1NZ7,1OEM,1OEO,1OES,1OET,1OEU,1OEV,1ONY,1ONZ,1PH0,1PXH,1PYN,1Q1M,1Q6J,1Q6M,1Q6N,1Q6P,1Q6S,1Q6T,1QXK,1SUG,1T48,1T49,1T4J,1WAX,1XBO,2AZR,2B07,2BGD,2BGE,
2CM2,2CM3,2CM7,2CM8,2CMA,2CMB,2CMC,2CNE,2CNF,2CNG,2CNH,2CNI,2F6T,2F6V,2F6W,2F6Y,2F6Z,2F70,2F71,2FJN,2H4G,2H4K,2HB1,2HNP,2HNQ,2QBP,2QBQ,2QBR,2QBS,2VEU,2VEV,2VEW,2VEX,2VEY,2ZMM,2ZN7,3A5J,3CWE,3D9C,3EAX,
3EB1,3EU0,3I7Z,3I80,3SME,4BJO,4I8N,4QBW,4Y14,5K9V,5K9W,5KA0,5KA1,5T19,6B90,6NTP,6W30,7KEY,7KLX,7LFO,7MN9,7MNA,8DU7,8G65,8G67,8G68,8G69,8G6A,8SKL

> <UniProt (SwissProt) Recommended Name of Target Chain>
Tyrosine-protein phosphatase non-receptor type 1

> <UniProt (SwissProt) Entry Name of Target Chain>
PTN1_HUMAN

> <UniProt (SwissProt) Primary ID of Target Chain>
P18031

> <UniProt (SwissProt) Secondary ID(s) of Target Chain>
Q5TGD8 Q9BQV9 Q9NQQ4

$$$$
Molecule
  SciTegic10242319433D

 76 81  0  0  0  0            999 V2000
   10.4181  -22.7462   -0.1513 C   0  0
    9.6941  -24.0289    0.0752 C   0  0
   10.4499  -25.1089    0.3113 C   0  0
   11.8916  -25.0549    0.3398 C   0  0
   12.5318  -23.9180    0.1293 C   0  0
   11.7573  -22.6934   -0.1325 C   0  0
   14.0053  -23.9474    0.1272 C   0  0
   14.6741  -25.2114    0.4490 C   0  0
   16.0000  -25.3093    0.4068 C   0  0
   16.8200  -24.1503    0.0209 C   0  0
   16.2079  -22.9908   -0.2468 C   0  0
   14.7324  -22.8797   -0.1907 C   0  0
    8.1108  -24.1306    0.0430 C   0  0
    5.6965  -24.8788    0.0030 S   0  0
    7.3597  -25.2772    0.0480 C   0  0
    5.8010  -23.2458   -0.0243 C   0  0
    7.1808  -22.8752   -0.0075 C   0  0
    7.5223  -21.5965   -0.0187 C   0  0
    6.4487  -20.5730   -0.0552 C   0  0
    5.1603  -20.9411   -0.0710 C   0  0
    4.8047  -22.3657   -0.0542 C   0  0
   18.2571  -24.2157   -0.1214 O   0  0
    7.8926  -26.7362    0.0743 C   0  0
   18.9550  -25.5162    0.0668 C   0  0  2  0  0  0
   20.5037  -25.2199   -0.0962 C   0  0
   21.5042  -26.3723    0.1245 C   0  0
   21.1859  -27.4859    0.7893 C   0  0
   22.1817  -28.5535    0.9660 C   0  0
   23.4105  -28.4126    0.4714 C   0  0
   23.7707  -27.1901   -0.2445 C   0  0
   22.8686  -26.2230   -0.4079 C   0  0
   18.5127  -26.5684   -0.9917 C   0  0
   17.5918  -26.3119   -1.7744 O   0  0
   19.1010  -27.8237   -1.0587 O   0  0
    6.9412  -27.9200    0.0458 C   0  0
    5.6147  -27.7986    0.0420 C   0  0
    4.7659  -28.9939    0.0180 C   0  0
    5.3186  -30.2086   -0.0002 C   0  0
    6.7723  -30.3387    0.0022 C   0  0
    7.5438  -29.2525    0.0241 C   0  0
    4.5264  -31.3702   -0.0209 O   0  0
    3.1265  -31.0542   -0.0179 C   0  0
    8.9481  -29.3599    0.0258 O   0  0
    9.3758  -30.7300    0.0018 C   0  0
    9.8487  -21.8352   -0.3355 H   0  0
    9.9574  -26.0650    0.4886 H   0  0
   12.4601  -25.9636    0.5376 H   0  0
   12.2706  -21.7484   -0.3102 H   0  0
   14.0782  -26.0811    0.7261 H   0  0
   16.4819  -26.2537    0.6596 H   0  0
   16.8034  -22.1164   -0.5096 H   0  0
   14.2452  -21.9293   -0.4084 H   0  0
    8.5714  -21.3012   -0.0013 H   0  0
    6.7097  -19.5148   -0.0693 H   0  0
    4.3770  -20.1836   -0.0963 H   0  0
    3.7639  -22.6893   -0.0657 H   0  0
    8.5449  -26.8428   -0.7924 H   0  0
    8.4809  -26.8342    0.9867 H   0  0
   18.7574  -25.8976    1.0687 H   0  0
   20.6551  -24.8534   -1.1114 H   0  0
   20.7568  -24.4344    0.6158 H   0  0
   20.1842  -27.6040    1.2025 H   0  0
   21.9134  -29.4631    1.5033 H   0  0
   24.1457  -29.2069    0.6003 H   0  0
   24.7773  -27.0696   -0.6448 H   0  0
   23.1436  -25.3128   -0.9409 H   0  0
   20.1296  -27.7193   -1.2421 H   0  0
    5.1592  -26.8084    0.0567 H   0  0
    3.6809  -28.8902    0.0150 H   0  0
    7.2287  -31.3284   -0.0140 H   0  0
    2.5454  -31.9762   -0.0343 H   0  0
    2.8861  -30.4582   -0.8984 H   0  0
    2.8832  -30.4879    0.8811 H   0  0
   10.4650  -30.7713    0.0039 H   0  0
    8.9961  -31.2140   -0.8981 H   0  0
    8.9915  -31.2466    0.8813 H   0  0
 20 21  1  0
 21 16  2  0
 10 11  2  0
 10 22  1  0
  5  6  1  0
 15 23  1  0
 11 12  1  0
 24 22  1  0
 12  7  2  0
 24 25  1  0
  5  7  1  0
 25 26  1  0
 13 17  1  0
 26 27  2  0
  6  1  2  0
 27 28  1  0
  1  2  1  0
 28 29  2  0
  3  4  1  0
 29 30  1  0
 16 14  1  0
 30 31  2  0
 31 26  1  0
 14 15  1  0
 24 32  1  0
 15 13  2  0
 32 33  2  0
  2 13  1  0
 32 34  1  0
  7  8  1  0
 23 35  1  0
 35 36  2  0
 16 17  1  0
 36 37  1  0
  8  9  2  0
 37 38  2  0
 17 18  2  0
 38 39  1  0
  4  5  2  0
 39 40  2  0
 40 35  1  0
 18 19  1  0
 38 41  1  0
  9 10  1  0
 41 42  1  0
 19 20  2  0
 40 43  1  0
  2  3  2  0
 43 44  1  0
  1 45  1  0
  3 46  1  0
  4 47  1  0
  6 48  1  0
  8 49  1  0
  9 50  1  0
 11 51  1  0
 12 52  1  0
 18 53  1  0
 19 54  1  0
 20 55  1  0
 21 56  1  0
 23 57  1  0
 23 58  1  0
 24 59  1  0
 25 60  1  0
 25 61  1  0
 27 62  1  0
 28 63  1  0
 29 64  1  0
 30 65  1  0
 31 66  1  0
 34 67  1  0
 36 68  1  0
 37 69  1  0
 39 70  1  0
 42 71  1  0
 42 72  1  0
 42 73  1  0
 44 74  1  0
 44 75  1  0
 44 76  1  0
M  END
> <Name>
Molecule

> <Clean Energy>
53.5727

> <From>
www.bindingDB.org

> <BindingDB Reactant_set_id>
51015882

> <Ligand InChI>
InChI=1S/C38H32O5S/c1-41-31-21-18-29(33(24-31)42-2)23-36-37(32-10-6-7-11-35(32)44-36)28-14-12-26(13-15-28)27-16-19-30(20-17-27)43-34(38(39)40)22-25-8-4-3-5-9-25/h3-21,24,34H,22-23H2,1-2H3,(H,39,40)/t3
4-/m1/s1

> <Ligand InChI Key>
HGPZRAKCMMNFNO-UUWRZZSWSA-N

> <BindingDB MonomerID>
50410223

> <BindingDB Ligand Name>
CHEMBL190535

> <Target Name>
Tyrosine-protein phosphatase non-receptor type 1

> <Target Source Organism According to Curator or DataSource>
Homo sapiens

> <IC50 (nM)>
85.11

> <Curation/DataSource>
ChEMBL

> <Article DOI>
10.1016/j.bmcl.2010.04.033

> <BindingDB Entry DOI>
10.7270/Q27D2WCC

> <PMID>
20452766

> <Authors>
Cheng, Y; Zhou, M; Tung, CH; Ji, M; Zhang, F

> <Institution>
Tsinghua University

> <Link to Ligand in BindingDB>
http://www.bindingdb.org/bind/chemsearch/marvin/MolStructure.jsp?monomerid=50410223

> <Link to Ligand-Target Pair in BindingDB>
http://www.bindingdb.org/jsp/dbsearch/PrimarySearch_ki.jsp?energyterm=kJ/mole&tag=pol&polymerid=2622&target=Tyrosine-protein+phosphatase+non-receptor+type+1&column=ki&startPg=0&Increment=50&submit=Sea
rch
http://www.bindingdb.org/jsp/dbsearch/PrimarySearch_ki.jsp?energyterm=kJ/mole&tag=r21&monomerid=50410223&enzyme=Tyrosine-protein+phosphatase+non-receptor+type+1&column=ki&startPg=0&Increment=50&submit
=Search

> <PubChem CID of Ligand>
9873483

> <PubChem SID of Ligand>
163359247

> <ChEMBL ID of Ligand>
CHEMBL190535

> <ZINC ID of Ligand>
ZINC28467388

> <Number of Protein Chains in Target (bigger than 1 implies a multichain complex)>
1

> <BindingDB Target Chain Sequence>
MEMEKEFEQIDKSGSWAAIYQDIRHEASDFPCRVAKLPKNKNRNRYRDVSPFDHSRIKLHQEDNDYINASLIKMEEAQRSYILTQGPLPNTCGHFWEMVWEQKSRGVVMLNRVMEKGSLKCAQYWPQKEEKEMIFEDTNLKLTLISEDIKSYYTVRQLELENLTTQETREILHFHYTTWPDFGVPESPASFLNFLFKVRE
SGSLSPEHGPVVVHCSAGIGRSGTFCLADTCLLLMDKRKDPSSVDIKKVLLEMRKFRMGLIQTADQLRFSYLAVIEGAKFIMGDSSVQDQWKELSHEDLEPPPEHIPPPPRPPKRILEPHNGKCREFFPNHQWVKEETQEDKDCPIKEEKGSPLNAAPYGIESMSQDTEVRSRVVGGSLRGAQAASPAKGEPSLPEKDED
HALSYWKPFLVNMCVATVLTAGAYLCYRFLFNSNT

> <PDB ID(s) of Target Chain>
1BZJ,1G7G,1GFY,1JF7,1KAK,1KAV,1LQF,1NL9,1NNY,1NO6,1NZ7,1OEM,1OEO,1OES,1OET,1OEU,1OEV,1ONY,1ONZ,1PH0,1PXH,1PYN,1Q1M,1Q6J,1Q6M,1Q6N,1Q6P,1Q6S,1Q6T,1QXK,1SUG,1T48,1T49,1T4J,1WAX,1XBO,2AZR,2B07,2BGD,2BGE,
2CM2,2CM3,2CM7,2CM8,2CMA,2CMB,2CMC,2CNE,2CNF,2CNG,2CNH,2CNI,2F6T,2F6V,2F6W,2F6Y,2F6Z,2F70,2F71,2FJN,2H4G,2H4K,2HB1,2HNP,2HNQ,2QBP,2QBQ,2QBR,2QBS,2VEU,2VEV,2VEW,2VEX,2VEY,2ZMM,2ZN7,3A5J,3CWE,3D9C,3EAX,
3EB1,3EU0,3I7Z,3I80,3SME,4BJO,4I8N,4QBW,4Y14,5K9V,5K9W,5KA0,5KA1,5T19,6B90,6NTP,6W30,7KEY,7KLX,7LFO,7MN9,7MNA,8DU7,8G65,8G67,8G68,8G69,8G6A,8SKL

> <UniProt (SwissProt) Recommended Name of Target Chain>
Tyrosine-protein phosphatase non-receptor type 1

> <UniProt (SwissProt) Entry Name of Target Chain>
PTN1_HUMAN

> <UniProt (SwissProt) Primary ID of Target Chain>
P18031

> <UniProt (SwissProt) Secondary ID(s) of Target Chain>
Q5TGD8 Q9BQV9 Q9NQQ4

$$$$
00040002.cdx
  SciTegic10242319433D

 96 98  0  0  0  0            999 V2000
   -8.3692    4.3180   -0.0520 C   0  0
   -8.2723    2.8293    0.1277 C   0  0
   -7.0497    2.2281    0.0686 N   0  0
   -6.8133    0.7676    0.2096 C   0  0  2  0  0  0
   -5.3564    0.3630   -0.2309 C   0  0
   -4.2519    1.0692    0.1371 N   0  0
   -2.8457    0.6110   -0.2190 C   0  0  1  0  0  0
   -1.7451    1.7325    0.1777 C   0  0
   -0.3895    1.4703    0.1745 N   0  0
    0.8072    2.4223    0.4296 C   0  0  2  0  0  0
    0.6154    3.8731   -0.0927 C   0  0
    1.7102    4.6837   -0.4036 N   0  0
   -9.3216    2.2016    0.3300 O   0  0
   -7.9912   -0.1021   -0.4225 C   0  0
   -8.0578   -1.6178   -0.1464 C   0  0
   -6.9824   -2.3539    0.3416 C   0  0
   -7.1003   -3.7227    0.5552 C   0  0
   -8.3036   -4.3672    0.2951 C   0  0
   -9.3869   -3.6378   -0.1791 C   0  0
   -9.2600   -2.2712   -0.4017 C   0  0
   -5.2116   -0.6513   -0.9165 O   0  0
   -2.5970   -0.9389    0.2461 C   0  0
   -1.2369   -1.5854   -0.0847 C   0  0
   -2.1551    2.8727    0.4146 O   0  0
   -0.3655   -0.9869   -0.9671 C   0  0
    0.9409   -1.4588   -1.0972 C   0  0
    1.3674   -2.5493   -0.3812 C   0  0
    0.4670   -3.2185    0.4682 C   0  0
   -0.8292   -2.7393    0.6027 C   0  0
    2.8665   -2.7258   -0.2195 C   0  0
    2.8036   -2.3933    1.0864 F   0  0
    3.5906   -1.7432   -0.8612 F   0  0
    2.2445    1.7506    0.0066 C   0  0
   -0.5093    4.3660   -0.1995 O   0  0
    3.5697    2.5958    0.3594 C   0  0
    4.9486    1.8601   -0.0225 C   0  0
    6.1933    2.8371    0.2109 C   0  0
    7.5437    2.2048    0.0711 N   0  0
    8.6487    2.9928    0.0614 C   0  0
    8.5056    4.2183    0.1347 O   0  0
   10.0536    2.4448    0.0051 C   0  0
   11.1303    3.3299    0.0210 C   0  0
   12.4410    2.8601   -0.0036 C   0  0
   12.6884    1.4922   -0.0424 C   0  0
   11.6158    0.6052   -0.0608 C   0  0
   10.3039    1.0765   -0.0364 C   0  0
   14.1117    0.9601   -0.0612 C   0  0
   15.1390    2.1150   -0.0114 C   0  0
    3.7454   -4.1191    0.0313 P   0  0
    2.9761   -5.1982    0.4119 O   0  0
    4.6747   -3.7459    1.2281 O   0  0
    4.6541   -4.4542   -1.1797 O   0  0
   -9.4117    4.6266    0.0244 H   0  0
   -7.9807    4.5921   -1.0329 H   0  0
   -7.7855    4.8166    0.7218 H   0  0
   -6.1971    2.8546   -0.0911 H   0  0
   -6.8546    0.5718    1.2810 H   0  0
   -4.3768    1.9744    0.6938 H   0  0
   -2.8309    0.5801   -1.3085 H   0  0
   -0.1245    0.4553   -0.0363 H   0  0
    0.8560    2.5221    1.5139 H   0  0
    2.7050    4.3083   -0.2836 H   0  0
    1.5538    5.6797   -0.7618 H   0  0
   -8.9271    0.3256   -0.0629 H   0  0
   -7.9276    0.0191   -1.5039 H   0  0
   -6.0390   -1.8528    0.5584 H   0  0
   -6.2478   -4.2910    0.9272 H   0  0
   -8.3972   -5.4403    0.4622 H   0  0
  -10.3358   -4.1366   -0.3764 H   0  0
  -10.1112   -1.7053   -0.7803 H   0  0
   -2.7182   -0.9755    1.3287 H   0  0
   -3.3681   -1.5467   -0.2271 H   0  0
   -0.6982   -0.1399   -1.5672 H   0  0
    1.6306   -0.9559   -1.7750 H   0  0
    0.7845   -4.1057    1.0160 H   0  0
   -1.5354   -3.2631    1.2469 H   0  0
    2.3215    0.7889    0.5138 H   0  0
    2.2307    1.5931   -1.0719 H   0  0
    3.5258    3.5404   -0.1828 H   0  0
    3.5735    2.7917    1.4317 H   0  0
    4.9177    1.5641   -1.0711 H   0  0
    5.0667    0.9747    0.6022 H   0  0
    6.1251    3.6472   -0.5152 H   0  0
    6.1160    3.2445    1.2189 H   0  0
    7.6364    1.1428   -0.0203 H   0  0
   10.9440    4.4034    0.0532 H   0  0
   13.2729    3.5643    0.0075 H   0  0
   11.8033   -0.4681   -0.0946 H   0  0
    9.4725    0.3718   -0.0498 H   0  0
   14.2613    0.3135    0.8035 H   0  0
   14.2652    0.3866   -0.9753 H   0  0
   16.1487    1.7047   -0.0261 H   0  0
   14.9948    2.6912    0.9026 H   0  0
   14.9987    2.7643   -0.8757 H   0  0
    5.2812   -2.9317    0.9601 H   0  0
    4.0614   -4.5889   -2.0359 H   0  0
  1  2  1  0
  2  3  1  0
  3  4  1  0
  4  5  1  0
  5  6  1  0
  6  7  1  0
  7  8  1  0
  8  9  1  0
  9 10  1  0
 10 11  1  0
 11 12  1  0
  2 13  2  0
  4 14  1  0
 14 15  1  0
 15 16  4  0
 16 17  4  0
 17 18  4  0
 18 19  4  0
 19 20  4  0
 20 15  4  0
  5 21  2  0
  7 22  1  0
 22 23  1  0
  8 24  2  0
 23 25  4  0
 25 26  4  0
 26 27  4  0
 27 28  4  0
 28 29  4  0
 29 23  4  0
 27 30  1  0
 30 31  1  0
 30 32  1  0
 10 33  1  0
 11 34  2  0
 33 35  1  0
 36 37  1  0
 37 38  1  0
 38 39  1  0
 39 40  2  0
 39 41  1  0
 41 42  4  0
 42 43  4  0
 43 44  4  0
 44 45  4  0
 45 46  4  0
 46 41  4  0
 44 47  1  0
 47 48  1  0
 35 36  1  0
 30 49  1  0
 49 50  2  0
 49 51  1  0
 49 52  1  0
  1 53  1  0
  1 54  1  0
  1 55  1  0
  3 56  1  0
  4 57  1  0
  6 58  1  0
  7 59  1  0
  9 60  1  0
 10 61  1  0
 12 62  1  0
 12 63  1  0
 14 64  1  0
 14 65  1  0
 16 66  1  0
 17 67  1  0
 18 68  1  0
 19 69  1  0
 20 70  1  0
 22 71  1  0
 22 72  1  0
 25 73  1  0
 26 74  1  0
 28 75  1  0
 29 76  1  0
 33 77  1  0
 33 78  1  0
 35 79  1  0
 35 80  1  0
 36 81  1  0
 36 82  1  0
 37 83  1  0
 37 84  1  0
 38 85  1  0
 42 86  1  0
 43 87  1  0
 45 88  1  0
 46 89  1  0
 47 90  1  0
 47 91  1  0
 48 92  1  0
 48 93  1  0
 48 94  1  0
 51 95  1  0
 52 96  1  0
M  END
> <Name>
00040002.cdx

> <Clean Energy>
100.776

> <From>
www.bindingDB.org

> <BindingDB Reactant_set_id>
354243

> <Ligand InChI>
InChI=1S/C36H44F2N5O8P/c1-3-24-12-16-27(17-13-24)33(46)40-20-8-7-11-29(32(39)45)42-35(48)31(22-26-14-18-28(19-15-26)36(37,38)52(49,50)51)43-34(47)30(41-23(2)44)21-25-9-5-4-6-10-25/h4-6,9-10,12-19,29-3
1H,3,7-8,11,20-22H2,1-2H3,(H2,39,45)(H,40,46)(H,41,44)(H,42,48)(H,43,47)(H2,49,50,51)

> <Ligand InChI Key>
VYAKAOXRMFTANB-UHFFFAOYSA-N

> <BindingDB MonomerID>
199179

> <BindingDB Ligand Name>
US9217012, 8

> <Target Name>
Tyrosine-protein phosphatase non-receptor type 1

> <Target Source Organism According to Curator or DataSource>
Homo sapiens

> <IC50 (nM)>
87

> <pH>
7

> <Temp C>
25

> <Curation/DataSource>
US Patent

> <BindingDB Entry DOI>
10.7270/Q2FX788H

> <PubChem AID>
aid1802078

> <Patent Number>
US9217012

> <Authors>
Zhang, Z; Zhang, S

> <Institution>
Indiana University Research and Technology Corporation

> <Link to Ligand in BindingDB>
http://www.bindingdb.org/bind/chemsearch/marvin/MolStructure.jsp?monomerid=199179

> <Link to Ligand-Target Pair in BindingDB>
http://www.bindingdb.org/jsp/dbsearch/PrimarySearch_ki.jsp?energyterm=kJ/mole&tag=pol&polymerid=2622&target=Tyrosine-protein+phosphatase+non-receptor+type+1&column=ki&startPg=0&Increment=50&submit=Sea
rch
http://www.bindingdb.org/jsp/dbsearch/PrimarySearch_ki.jsp?energyterm=kJ/mole&tag=r21&monomerid=199179&enzyme=Tyrosine-protein+phosphatase+non-receptor+type+1&column=ki&startPg=0&Increment=50&submit=S
earch

> <PubChem CID of Ligand>
122198704

> <PubChem SID of Ligand>
318490137

> <Number of Protein Chains in Target (bigger than 1 implies a multichain complex)>
1

> <BindingDB Target Chain Sequence>
MEMEKEFEQIDKSGSWAAIYQDIRHEASDFPCRVAKLPKNKNRNRYRDVSPFDHSRIKLHQEDNDYINASLIKMEEAQRSYILTQGPLPNTCGHFWEMVWEQKSRGVVMLNRVMEKGSLKCAQYWPQKEEKEMIFEDTNLKLTLISEDIKSYYTVRQLELENLTTQETREILHFHYTTWPDFGVPESPASFLNFLFKVRE
SGSLSPEHGPVVVHCSAGIGRSGTFCLADTCLLLMDKRKDPSSVDIKKVLLEMRKFRMGLIQTADQLRFSYLAVIEGAKFIMGDSSVQDQWKELSHEDLEPPPEHIPPPPRPPKRILEPHNGKCREFFPNHQWVKEETQEDKDCPIKEEKGSPLNAAPYGIESMSQDTEVRSRVVGGSLRGAQAASPAKGEPSLPEKDED
HALSYWKPFLVNMCVATVLTAGAYLCYRFLFNSNT

> <PDB ID(s) of Target Chain>
1BZJ,1G7G,1GFY,1JF7,1KAK,1KAV,1LQF,1NL9,1NNY,1NO6,1NZ7,1OEM,1OEO,1OES,1OET,1OEU,1OEV,1ONY,1ONZ,1PH0,1PXH,1PYN,1Q1M,1Q6J,1Q6M,1Q6N,1Q6P,1Q6S,1Q6T,1QXK,1SUG,1T48,1T49,1T4J,1WAX,1XBO,2AZR,2B07,2BGD,2BGE,
2CM2,2CM3,2CM7,2CM8,2CMA,2CMB,2CMC,2CNE,2CNF,2CNG,2CNH,2CNI,2F6T,2F6V,2F6W,2F6Y,2F6Z,2F70,2F71,2FJN,2H4G,2H4K,2HB1,2HNP,2HNQ,2QBP,2QBQ,2QBR,2QBS,2VEU,2VEV,2VEW,2VEX,2VEY,2ZMM,2ZN7,3A5J,3CWE,3D9C,3EAX,
3EB1,3EU0,3I7Z,3I80,3SME,4BJO,4I8N,4QBW,4Y14,5K9V,5K9W,5KA0,5KA1,5T19,6B90,6NTP,6W30,7KEY,7KLX,7LFO,7MN9,7MNA,8DU7,8G65,8G67,8G68,8G69,8G6A,8SKL

> <UniProt (SwissProt) Recommended Name of Target Chain>
Tyrosine-protein phosphatase non-receptor type 1

> <UniProt (SwissProt) Entry Name of Target Chain>
PTN1_HUMAN

> <UniProt (SwissProt) Primary ID of Target Chain>
P18031

> <UniProt (SwissProt) Secondary ID(s) of Target Chain>
Q5TGD8 Q9BQV9 Q9NQQ4

$$$$
Molecule
  SciTegic10242319433D

 61 65  0  0  0  0            999 V2000
   -3.3467    1.1823   -0.2348 N   0  0
   -3.8992    0.0794    0.4332 N   0  0
   -1.7900    1.4184   -0.4506 C   0  0  1  0  0  0
    2.6599   -5.2713   -0.3084 P   0  0
    2.9665   -3.6545   -0.0915 C   0  0
   -5.1243    0.1714    0.5570 N   0  0
   -4.4860    2.0118   -0.5639 C   0  0
   -5.5619    1.3592   -0.0183 C   0  0
    1.7009   -2.8270   -0.1418 C   0  0
   -0.6550    1.2832    0.6710 C   0  0
   -1.8295   -0.1786   -0.0395 C   0  0
    1.8156   -5.7384    0.6786 O   0  0
   -1.9348    2.8301    0.2544 C   0  0
    3.8433   -3.2134   -1.0582 F   0  0
    3.5247   -3.5350    1.1659 F   0  0
    2.0131   -5.4913   -1.6959 O   0  0
    4.0033   -6.0446   -0.2358 O   0  0
    1.5550   -1.8036   -1.1817 C   0  0
    0.7469   -2.9815    0.7747 C   0  0
   -0.5670   -1.1395   -0.1487 C   0  0
    0.7410    1.9154    0.3368 C   0  0
    3.2728    3.0079   -0.1912 C   0  0
    0.4872   -1.0070   -1.2020 C   0  0
   -0.4352   -2.1093    0.7660 C   0  0
    4.9786    3.7718   -0.5404 Br  0  0
   -4.6211    3.1743   -1.2052 C   0  0
    1.0300    2.4144   -0.8720 C   0  0
    1.7746    1.9251    1.3767 C   0  0
    2.9766    2.4422    1.1259 C   0  0
    2.3443    2.9920   -1.1437 C   0  0
   -6.8021    1.8363   -0.0584 C   0  0
   -2.3061    2.9466    1.5417 C   0  0
   -1.6751    4.0751   -0.5290 C   0  0
   -5.9734    3.7639   -1.2914 C   0  0
   -7.0129    3.1294   -0.7349 C   0  0
   -1.8111    5.2703    0.0376 C   0  0
   -2.4512    4.2723    2.1507 C   0  0
   -2.2181    5.3723    1.4363 C   0  0
   -1.0266    1.7623    1.5768 H   0  0
   -0.5004    0.2207    0.8585 H   0  0
   -2.1400   -0.2108    1.0048 H   0  0
   -2.6022   -0.6286   -0.6629 H   0  0
    1.1128   -4.9538   -1.7522 H   0  0
    4.6477   -5.6992   -0.9894 H   0  0
    2.3261   -1.6937   -1.9442 H   0  0
    0.8436   -3.7577    1.5338 H   0  0
    0.3816   -0.2580   -1.9868 H   0  0
   -1.2152   -2.2531    1.5136 H   0  0
   -3.7609    3.6734   -1.6514 H   0  0
    0.2778    2.3894   -1.6605 H   0  0
    1.5585    1.5072    2.3599 H   0  0
    3.7409    2.4441    1.9031 H   0  0
    2.5640    3.4095   -2.1263 H   0  0
   -7.6322    1.2919    0.3919 H   0  0
   -2.4997    2.0524    2.1342 H   0  0
   -1.3716    4.0033   -1.5734 H   0  0
   -6.1242    4.7125   -1.8066 H   0  0
   -8.0102    3.5667   -0.7817 H   0  0
   -1.6189    6.1734   -0.5416 H   0  0
   -2.7518    4.3584    3.1949 H   0  0
   -2.3318    6.3531    1.8980 H   0  0
  2  1  1  0
  3  1  1  0
  4  5  1  0
  5  9  1  0
  6  2  2  0
  7  1  1  0
  8  7  1  0
  9 19  2  0
 10  3  1  0
 11  3  1  0
 12  4  2  0
 13  3  1  0
 14  5  1  0
 15  5  1  0
 16  4  1  0
 17  4  1  0
 18 23  2  0
 19 24  1  0
 20 11  1  0
 21 10  1  0
 22 29  1  0
 23 20  1  0
 24 20  2  0
 25 22  1  0
 26  7  2  0
 27 21  2  0
 28 21  1  0
 29 28  2  0
 30 27  1  0
 31  8  2  0
 32 13  2  0
 33 13  1  0
 34 26  1  0
 35 34  2  0
 36 33  2  0
 37 32  1  0
 38 36  1  0
  6  8  1  0
 31 35  1  0
 38 37  2  0
 18  9  1  0
 22 30  2  0
 10 39  1  0
 10 40  1  0
 11 41  1  0
 11 42  1  0
 16 43  1  0
 17 44  1  0
 18 45  1  0
 19 46  1  0
 23 47  1  0
 24 48  1  0
 26 49  1  0
 27 50  1  0
 28 51  1  0
 29 52  1  0
 30 53  1  0
 31 54  1  0
 32 55  1  0
 33 56  1  0
 34 57  1  0
 35 58  1  0
 36 59  1  0
 37 60  1  0
 38 61  1  0
M  END
> <Name>
Molecule

> <Clean Energy>
175.708

> <From>
www.bindingDB.org

> <BindingDB Reactant_set_id>
50596963

> <Ligand InChI>
InChI=1S/C28H23BrF2N3O3P/c29-24-16-12-21(13-17-24)19-27(22-6-2-1-3-7-22,34-26-9-5-4-8-25(26)32-33-34)18-20-10-14-23(15-11-20)28(30,31)38(35,36)37/h1-17H,18-19H2,(H2,35,36,37)

> <Ligand InChI Key>
VVHNEMAMQJWZGQ-UHFFFAOYSA-N

> <BindingDB MonomerID>
50142331

> <BindingDB Ligand Name>
({4-[2-Benzotriazol-1-yl-3-(4-bromo-phenyl)-2-phenyl-propyl]-phenyl}-difluoro-methyl)-phosphonic acid::CHEMBL9339

> <Target Name>
Tyrosine-protein phosphatase non-receptor type 1

> <Target Source Organism According to Curator or DataSource>
Homo sapiens

> <IC50 (nM)>
89

> <Curation/DataSource>
ChEMBL

> <Article DOI>
10.1016/j.bmcl.2003.11.076

> <BindingDB Entry DOI>
10.7270/Q24M9404

> <PMID>
15013020

> <Authors>
Lau, CK; Bayly, CI; Gauthier, JY; Li, CS; Therien, M; Asante-Appiah, E; Cromlish, W; Boie, Y; Forghani, F; Desmarais, S; Wang, Q; Skorey, K; Waddleton, D; Payette, P; Ramachandran, C; Kennedy, BP; Sca
pin, G

> <Institution>
Merck Frosst Centre for Therapeutic Research

> <Link to Ligand in BindingDB>
http://www.bindingdb.org/bind/chemsearch/marvin/MolStructure.jsp?monomerid=50142331

> <Link to Ligand-Target Pair in BindingDB>
http://www.bindingdb.org/jsp/dbsearch/PrimarySearch_ki.jsp?energyterm=kJ/mole&tag=pol&polymerid=2622&target=Tyrosine-protein+phosphatase+non-receptor+type+1&column=ki&startPg=0&Increment=50&submit=Sea
rch
http://www.bindingdb.org/jsp/dbsearch/PrimarySearch_ki.jsp?energyterm=kJ/mole&tag=r21&monomerid=50142331&enzyme=Tyrosine-protein+phosphatase+non-receptor+type+1&column=ki&startPg=0&Increment=50&submit
=Search

> <PubChem CID of Ligand>
15485898

> <PubChem SID of Ligand>
104031722

> <ChEMBL ID of Ligand>
CHEMBL9339

> <ZINC ID of Ligand>
ZINC25996686

> <Number of Protein Chains in Target (bigger than 1 implies a multichain complex)>
1

> <BindingDB Target Chain Sequence>
MEMEKEFEQIDKSGSWAAIYQDIRHEASDFPCRVAKLPKNKNRNRYRDVSPFDHSRIKLHQEDNDYINASLIKMEEAQRSYILTQGPLPNTCGHFWEMVWEQKSRGVVMLNRVMEKGSLKCAQYWPQKEEKEMIFEDTNLKLTLISEDIKSYYTVRQLELENLTTQETREILHFHYTTWPDFGVPESPASFLNFLFKVRE
SGSLSPEHGPVVVHCSAGIGRSGTFCLADTCLLLMDKRKDPSSVDIKKVLLEMRKFRMGLIQTADQLRFSYLAVIEGAKFIMGDSSVQDQWKELSHEDLEPPPEHIPPPPRPPKRILEPHNGKCREFFPNHQWVKEETQEDKDCPIKEEKGSPLNAAPYGIESMSQDTEVRSRVVGGSLRGAQAASPAKGEPSLPEKDED
HALSYWKPFLVNMCVATVLTAGAYLCYRFLFNSNT

> <PDB ID(s) of Target Chain>
1BZJ,1G7G,1GFY,1JF7,1KAK,1KAV,1LQF,1NL9,1NNY,1NO6,1NZ7,1OEM,1OEO,1OES,1OET,1OEU,1OEV,1ONY,1ONZ,1PH0,1PXH,1PYN,1Q1M,1Q6J,1Q6M,1Q6N,1Q6P,1Q6S,1Q6T,1QXK,1SUG,1T48,1T49,1T4J,1WAX,1XBO,2AZR,2B07,2BGD,2BGE,
2CM2,2CM3,2CM7,2CM8,2CMA,2CMB,2CMC,2CNE,2CNF,2CNG,2CNH,2CNI,2F6T,2F6V,2F6W,2F6Y,2F6Z,2F70,2F71,2FJN,2H4G,2H4K,2HB1,2HNP,2HNQ,2QBP,2QBQ,2QBR,2QBS,2VEU,2VEV,2VEW,2VEX,2VEY,2ZMM,2ZN7,3A5J,3CWE,3D9C,3EAX,
3EB1,3EU0,3I7Z,3I80,3SME,4BJO,4I8N,4QBW,4Y14,5K9V,5K9W,5KA0,5KA1,5T19,6B90,6NTP,6W30,7KEY,7KLX,7LFO,7MN9,7MNA,8DU7,8G65,8G67,8G68,8G69,8G6A,8SKL

> <UniProt (SwissProt) Recommended Name of Target Chain>
Tyrosine-protein phosphatase non-receptor type 1

> <UniProt (SwissProt) Entry Name of Target Chain>
PTN1_HUMAN

> <UniProt (SwissProt) Primary ID of Target Chain>
P18031

> <UniProt (SwissProt) Secondary ID(s) of Target Chain>
Q5TGD8 Q9BQV9 Q9NQQ4

$$$$
Molecule
  SciTegic10242319433D

 81 84  0  0  0  0            999 V2000
    0.0059   -7.9712   -0.3814 S   0  0
   -1.0295   -1.1903   -0.0199 C   0  0
    5.1982    2.9475   -0.0188 P   0  0
    3.8209    3.8084    0.3555 C   0  0
    0.8988   -9.2817    0.3191 N   0  0
   -2.4801   -1.5324   -0.6962 C   0  0
    0.1010   -1.6394   -0.9632 C   0  0
   -0.3552   -6.3098    0.2158 C   0  0
    2.2512   -9.5984   -0.0265 C   0  0
    2.6314    2.8882    0.4948 C   0  0
   -1.0775   -8.3619    0.5909 O   0  0
    1.3827   -7.3483   -0.1873 O   0  0
   -0.8609    0.3922    0.1997 C   0  0
   -0.8301   -2.0660    1.3200 C   0  0
    5.5125    2.0684    0.9975 O   0  0
   -3.7946   -0.7634   -0.6441 O   0  0
    1.4297   -1.6842   -0.4724 O   0  0
   -0.1474   -2.0230   -2.1101 O   0  0
   -2.5211   -2.5566   -1.3847 O   0  0
    4.0221    4.4926    1.5321 F   0  0
    3.5383    4.7315   -0.6369 F   0  0
    2.8798   -8.9385   -0.8674 O   0  0
    4.9620    2.1589   -1.3358 O   0  0
    6.3778    3.9298   -0.2178 O   0  0
    0.6287   -5.5754    0.6986 C   0  0
   -1.7155   -5.7273    0.1349 C   0  0
    2.7568    1.4857    0.9614 C   0  0
    1.4509    3.3427    0.1057 C   0  0
   -0.7722   -3.6196    1.0002 C   0  0
    0.4050    1.1899    0.4775 C   0  0
    2.3898   -2.1169   -1.4534 C   0  0
   -3.9031    0.4897    0.0916 C   0  0
    0.4114   -4.2038    1.1014 C   0  0
    1.6925    0.6753    0.9582 C   0  0
   -1.9162   -4.4514    0.5112 C   0  0
    0.3137    2.4621    0.0941 C   0  0
   -5.1908    1.2363   -0.0250 C   0  0
    3.4134   -2.9895   -0.7580 C   0  0
    2.9288  -10.7633    0.6371 C   0  0
   -6.3218    0.6315   -0.3746 C   0  0
    3.2913   -3.2340    0.5434 C   0  0
    4.4958   -3.6221   -1.5100 C   0  0
   -5.1855    2.6751    0.2742 C   0  0
    4.2097   -4.1381    1.2275 C   0  0
    5.3373   -4.4519   -0.8906 C   0  0
   -6.3094    3.3819    0.1997 C   0  0
   -7.5643    1.4142   -0.4507 C   0  0
    5.1827   -4.7299    0.5420 C   0  0
   -7.5565    2.7197   -0.1763 C   0  0
    0.4105   -9.8890    1.0524 H   0  0
   -1.2677    0.8367   -0.7086 H   0  0
   -1.5153    0.6204    1.0410 H   0  0
    0.1020   -1.7692    1.8009 H   0  0
   -1.6646   -1.8749    1.9947 H   0  0
    4.1561    1.4979   -1.2088 H   0  0
    6.1541    4.5921   -1.0012 H   0  0
    1.6235   -6.0104    0.7956 H   0  0
   -2.5488   -6.3293   -0.2275 H   0  0
    3.7207    1.1138    1.3087 H   0  0
    1.3407    4.3817   -0.2051 H   0  0
    1.8878   -2.6876   -2.2346 H   0  0
    2.8823   -1.2506   -1.8951 H   0  0
   -3.7478    0.2655    1.1469 H   0  0
   -3.1089    1.1476   -0.2613 H   0  0
    1.2490   -3.6325    1.5014 H   0  0
    1.7805   -0.3534    1.3078 H   0  0
   -2.9165   -4.0215    0.4597 H   0  0
   -0.6504    2.8470   -0.2380 H   0  0
    3.9461  -10.8572    0.2572 H   0  0
    2.3753  -11.6772    0.4216 H   0  0
    2.9575  -10.6019    1.7148 H   0  0
   -6.3281   -0.4344   -0.6028 H   0  0
    2.4931   -2.7516    1.1076 H   0  0
    4.6151   -3.4164   -2.5737 H   0  0
   -4.2548    3.1659    0.5588 H   0  0
    4.0984   -4.3273    2.2952 H   0  0
    6.1432   -4.9255   -1.4513 H   0  0
   -6.3004    4.4498    0.4179 H   0  0
   -8.4967    0.9251   -0.7327 H   0  0
    5.8632   -5.4191    1.0421 H   0  0
   -8.4817    3.2932   -0.2327 H   0  0
  2 14  1  0
  3  4  1  0
  4 10  1  0
  5  1  1  0
  6  2  1  0
  7  2  1  0
  8  1  1  0
  9  5  1  0
 10 28  2  0
 11  1  2  0
 12  1  2  0
 13  2  1  0
 14 29  1  0
 15  3  2  0
 16  6  1  0
 17  7  1  0
 18  7  2  0
 19  6  2  0
 20  4  1  0
 21  4  1  0
 22  9  2  0
 23  3  1  0
 24  3  1  0
 25  8  2  0
 26  8  1  0
 27 34  2  0
 28 36  1  0
 29 35  1  0
 30 13  1  0
 31 17  1  0
 32 16  1  0
 33 25  1  0
 34 30  1  0
 35 26  2  0
 36 30  2  0
 37 32  1  0
 38 31  1  0
 39  9  1  0
 40 37  2  0
 41 38  2  0
 42 38  1  0
 43 37  1  0
 44 41  1  0
 45 42  2  0
 46 43  2  0
 47 40  1  0
 48 45  1  0
 49 46  1  0
 33 29  2  0
 27 10  1  0
 44 48  2  0
 47 49  2  0
  5 50  1  0
 13 51  1  0
 13 52  1  0
 14 53  1  0
 14 54  1  0
 23 55  1  0
 24 56  1  0
 25 57  1  0
 26 58  1  0
 27 59  1  0
 28 60  1  0
 31 61  1  0
 31 62  1  0
 32 63  1  0
 32 64  1  0
 33 65  1  0
 34 66  1  0
 35 67  1  0
 36 68  1  0
 39 69  1  0
 39 70  1  0
 39 71  1  0
 40 72  1  0
 41 73  1  0
 42 74  1  0
 43 75  1  0
 44 76  1  0
 45 77  1  0
 46 78  1  0
 47 79  1  0
 48 80  1  0
 49 81  1  0
M  END
> <Name>
Molecule

> <Clean Energy>
172.518

> <From>
www.bindingDB.org

> <BindingDB Reactant_set_id>
50026881

> <Ligand InChI>
InChI=1S/C34H32F2NO10PS/c1-24(38)37-49(44,45)30-18-14-26(15-19-30)21-33(31(39)46-22-27-8-4-2-5-9-27,32(40)47-23-28-10-6-3-7-11-28)20-25-12-16-29(17-13-25)34(35,36)48(41,42)43/h2-19H,20-23H2,1H3,(H,37,
38)(H2,41,42,43)

> <Ligand InChI Key>
SXFIPURNTUMNDL-UHFFFAOYSA-N

> <BindingDB MonomerID>
50142316

> <BindingDB Ligand Name>
2-(4-Acetylsulfamoyl-benzyl)-2-[4-(difluoro-phosphono-methyl)-benzyl]-malonic acid dibenzyl ester::CHEMBL263348

> <Target Name>
Tyrosine-protein phosphatase non-receptor type 1

> <Target Source Organism According to Curator or DataSource>
Homo sapiens

> <IC50 (nM)>
90

> <Curation/DataSource>
ChEMBL

> <Article DOI>
10.1016/j.bmcl.2003.11.048

> <BindingDB Entry DOI>
10.7270/Q28C9VPM

> <PMID>
15013019

> <Authors>
Dufresne, C; Roy, P; Wang, Z; Asante-Appiah, E; Cromlish, W; Boie, Y; Forghani, F; Desmarais, S; Wang, Q; Skorey, K; Waddleton, D; Ramachandran, C; Kennedy, BP; Xu, L; Gordon, R; Chan, CC; Leblanc, Y

> <Institution>
Merck Frosst Centre for Therapeutic Research

> <Link to Ligand in BindingDB>
http://www.bindingdb.org/bind/chemsearch/marvin/MolStructure.jsp?monomerid=50142316

> <Link to Ligand-Target Pair in BindingDB>
http://www.bindingdb.org/jsp/dbsearch/PrimarySearch_ki.jsp?energyterm=kJ/mole&tag=pol&polymerid=2622&target=Tyrosine-protein+phosphatase+non-receptor+type+1&column=ki&startPg=0&Increment=50&submit=Sea
rch
http://www.bindingdb.org/jsp/dbsearch/PrimarySearch_ki.jsp?energyterm=kJ/mole&tag=r21&monomerid=50142316&enzyme=Tyrosine-protein+phosphatase+non-receptor+type+1&column=ki&startPg=0&Increment=50&submit
=Search

> <PubChem CID of Ligand>
44265541

> <PubChem SID of Ligand>
104031707

> <ChEMBL ID of Ligand>
CHEMBL263348

> <ZINC ID of Ligand>
ZINC25990048

> <Number of Protein Chains in Target (bigger than 1 implies a multichain complex)>
1

> <BindingDB Target Chain Sequence>
MEMEKEFEQIDKSGSWAAIYQDIRHEASDFPCRVAKLPKNKNRNRYRDVSPFDHSRIKLHQEDNDYINASLIKMEEAQRSYILTQGPLPNTCGHFWEMVWEQKSRGVVMLNRVMEKGSLKCAQYWPQKEEKEMIFEDTNLKLTLISEDIKSYYTVRQLELENLTTQETREILHFHYTTWPDFGVPESPASFLNFLFKVRE
SGSLSPEHGPVVVHCSAGIGRSGTFCLADTCLLLMDKRKDPSSVDIKKVLLEMRKFRMGLIQTADQLRFSYLAVIEGAKFIMGDSSVQDQWKELSHEDLEPPPEHIPPPPRPPKRILEPHNGKCREFFPNHQWVKEETQEDKDCPIKEEKGSPLNAAPYGIESMSQDTEVRSRVVGGSLRGAQAASPAKGEPSLPEKDED
HALSYWKPFLVNMCVATVLTAGAYLCYRFLFNSNT

> <PDB ID(s) of Target Chain>
1BZJ,1G7G,1GFY,1JF7,1KAK,1KAV,1LQF,1NL9,1NNY,1NO6,1NZ7,1OEM,1OEO,1OES,1OET,1OEU,1OEV,1ONY,1ONZ,1PH0,1PXH,1PYN,1Q1M,1Q6J,1Q6M,1Q6N,1Q6P,1Q6S,1Q6T,1QXK,1SUG,1T48,1T49,1T4J,1WAX,1XBO,2AZR,2B07,2BGD,2BGE,
2CM2,2CM3,2CM7,2CM8,2CMA,2CMB,2CMC,2CNE,2CNF,2CNG,2CNH,2CNI,2F6T,2F6V,2F6W,2F6Y,2F6Z,2F70,2F71,2FJN,2H4G,2H4K,2HB1,2HNP,2HNQ,2QBP,2QBQ,2QBR,2QBS,2VEU,2VEV,2VEW,2VEX,2VEY,2ZMM,2ZN7,3A5J,3CWE,3D9C,3EAX,
3EB1,3EU0,3I7Z,3I80,3SME,4BJO,4I8N,4QBW,4Y14,5K9V,5K9W,5KA0,5KA1,5T19,6B90,6NTP,6W30,7KEY,7KLX,7LFO,7MN9,7MNA,8DU7,8G65,8G67,8G68,8G69,8G6A,8SKL

> <UniProt (SwissProt) Recommended Name of Target Chain>
Tyrosine-protein phosphatase non-receptor type 1

> <UniProt (SwissProt) Entry Name of Target Chain>
PTN1_HUMAN

> <UniProt (SwissProt) Primary ID of Target Chain>
P18031

> <UniProt (SwissProt) Secondary ID(s) of Target Chain>
Q5TGD8 Q9BQV9 Q9NQQ4

$$$$
Molecule
  SciTegic10242319433D

 30 31  0  0  0  0            999 V2000
    4.7403  -22.6825    0.1442 C   0  0
    4.6656  -24.0534    0.1284 C   0  0
    6.0575  -24.7859    0.0890 C   0  0
    6.1086  -21.9962    0.1362 C   0  0
    7.2654  -22.6756    0.0713 C   0  0
    7.2517  -24.1226    0.0526 C   0  0
    8.6204  -24.8561    0.0182 C   0  0
    9.7860  -24.1661   -0.0031 C   0  0
    9.7417  -22.6596   -0.0051 C   0  0
    8.5864  -21.9718    0.0283 C   0  0
    3.2098  -24.9140   -0.1809 C   0  0
    1.7219  -25.7808    0.6624 P   0  0
    1.2418  -25.8289   -0.5777 O   0  0
    1.4523  -24.4648    0.8519 O   0  0
    2.6541  -26.9634    0.4745 O   0  0
    3.7732  -25.8555   -1.0437 F   0  0
    2.5503  -23.9699   -0.8674 F   0  0
    3.2084  -21.4981    0.0416 Br  0  0
   11.2253  -24.8619   -0.0167 C   0  0
   11.3054  -26.3758   -0.0062 C   0  0
   11.3890  -27.5287    0.0023 N   0  0
    6.0699  -25.8759    0.0909 H   0  0
    6.1457  -20.9080    0.1854 H   0  0
    8.6435  -25.9458    0.0112 H   0  0
   10.6808  -22.1070   -0.0347 H   0  0
    8.6121  -20.8821    0.0241 H   0  0
    1.1451  -24.8535   -0.9542 H   0  0
    2.8570  -27.0907   -0.5478 H   0  0
   11.7374  -24.5204   -0.9163 H   0  0
   11.7608  -24.5068    0.8638 H   0  0
 10  5  1  0
  2 11  1  0
  2  3  1  0
 11 12  1  0
  5  6  1  0
 12 13  1  0
  3  6  2  0
 12 14  2  0
  6  7  1  0
 12 15  1  0
  1  2  2  0
 11 16  1  0
  7  8  2  0
 11 17  1  0
  5  4  2  0
  1 18  1  0
  8  9  1  0
  8 19  1  0
  4  1  1  0
 19 20  1  0
  9 10  2  0
 20 21  3  0
  3 22  1  0
  4 23  1  0
  7 24  1  0
  9 25  1  0
 10 26  1  0
 13 27  1  0
 15 28  1  0
 19 29  1  0
 19 30  1  0
M  END
> <Name>
Molecule

> <Clean Energy>
175.34

> <From>
www.bindingDB.org

> <BindingDB Reactant_set_id>
50859537

> <Ligand InChI>
InChI=1S/C13H9BrF2NO3P/c14-12-7-9-2-1-8(3-4-17)5-10(9)6-11(12)13(15,16)21(18,19)20/h1-2,5-7H,3H2,(H2,18,19,20)

> <Ligand InChI Key>
XLWHANJIWMOALO-UHFFFAOYSA-N

> <BindingDB MonomerID>
50373443

> <BindingDB Ligand Name>
CHEMBL259051

> <Target Name>
Tyrosine-protein phosphatase non-receptor type 1

> <Target Source Organism According to Curator or DataSource>
Homo sapiens

> <IC50 (nM)>
90

> <Curation/DataSource>
ChEMBL

> <Article DOI>
10.1016/j.bmcl.2008.04.064

> <BindingDB Entry DOI>
10.7270/Q24M95DX

> <PMID>
18477508

> <Authors>
Han, Y; Belley, M; Bayly, CI; Colucci, J; Dufresne, C; Giroux, A; Lau, CK; Leblanc, Y; McKay, D; Therien, M; Wilson, MC; Skorey, K; Chan, CC; Scapin, G; Kennedy, BP

> <Institution>
Merck Frosst Centre for Therapeutic Research

> <Link to Ligand in BindingDB>
http://www.bindingdb.org/bind/chemsearch/marvin/MolStructure.jsp?monomerid=50373443

> <Link to Ligand-Target Pair in BindingDB>
http://www.bindingdb.org/jsp/dbsearch/PrimarySearch_ki.jsp?energyterm=kJ/mole&tag=pol&polymerid=2622&target=Tyrosine-protein+phosphatase+non-receptor+type+1&column=ki&startPg=0&Increment=50&submit=Sea
rch
http://www.bindingdb.org/jsp/dbsearch/PrimarySearch_ki.jsp?energyterm=kJ/mole&tag=r21&monomerid=50373443&enzyme=Tyrosine-protein+phosphatase+non-receptor+type+1&column=ki&startPg=0&Increment=50&submit
=Search

> <PubChem CID of Ligand>
25056375

> <PubChem SID of Ligand>
160852544

> <ChEMBL ID of Ligand>
CHEMBL259051

> <ZINC ID of Ligand>
ZINC29047624

> <Number of Protein Chains in Target (bigger than 1 implies a multichain complex)>
1

> <BindingDB Target Chain Sequence>
MEMEKEFEQIDKSGSWAAIYQDIRHEASDFPCRVAKLPKNKNRNRYRDVSPFDHSRIKLHQEDNDYINASLIKMEEAQRSYILTQGPLPNTCGHFWEMVWEQKSRGVVMLNRVMEKGSLKCAQYWPQKEEKEMIFEDTNLKLTLISEDIKSYYTVRQLELENLTTQETREILHFHYTTWPDFGVPESPASFLNFLFKVRE
SGSLSPEHGPVVVHCSAGIGRSGTFCLADTCLLLMDKRKDPSSVDIKKVLLEMRKFRMGLIQTADQLRFSYLAVIEGAKFIMGDSSVQDQWKELSHEDLEPPPEHIPPPPRPPKRILEPHNGKCREFFPNHQWVKEETQEDKDCPIKEEKGSPLNAAPYGIESMSQDTEVRSRVVGGSLRGAQAASPAKGEPSLPEKDED
HALSYWKPFLVNMCVATVLTAGAYLCYRFLFNSNT

> <PDB ID(s) of Target Chain>
1BZJ,1G7G,1GFY,1JF7,1KAK,1KAV,1LQF,1NL9,1NNY,1NO6,1NZ7,1OEM,1OEO,1OES,1OET,1OEU,1OEV,1ONY,1ONZ,1PH0,1PXH,1PYN,1Q1M,1Q6J,1Q6M,1Q6N,1Q6P,1Q6S,1Q6T,1QXK,1SUG,1T48,1T49,1T4J,1WAX,1XBO,2AZR,2B07,2BGD,2BGE,
2CM2,2CM3,2CM7,2CM8,2CMA,2CMB,2CMC,2CNE,2CNF,2CNG,2CNH,2CNI,2F6T,2F6V,2F6W,2F6Y,2F6Z,2F70,2F71,2FJN,2H4G,2H4K,2HB1,2HNP,2HNQ,2QBP,2QBQ,2QBR,2QBS,2VEU,2VEV,2VEW,2VEX,2VEY,2ZMM,2ZN7,3A5J,3CWE,3D9C,3EAX,
3EB1,3EU0,3I7Z,3I80,3SME,4BJO,4I8N,4QBW,4Y14,5K9V,5K9W,5KA0,5KA1,5T19,6B90,6NTP,6W30,7KEY,7KLX,7LFO,7MN9,7MNA,8DU7,8G65,8G67,8G68,8G69,8G6A,8SKL

> <UniProt (SwissProt) Recommended Name of Target Chain>
Tyrosine-protein phosphatase non-receptor type 1

> <UniProt (SwissProt) Entry Name of Target Chain>
PTN1_HUMAN

> <UniProt (SwissProt) Primary ID of Target Chain>
P18031

> <UniProt (SwissProt) Secondary ID(s) of Target Chain>
Q5TGD8 Q9BQV9 Q9NQQ4

$$$$
Molecule
  SciTegic10242319433D

 61 65  0  0  0  0            999 V2000
   -2.1362   -1.1235   -0.1172 C   0  0
   -2.2666   -2.5664   -0.2842 C   0  0
   -1.2025   -3.3551   -0.1496 C   0  0
    0.1256   -2.7848    0.1489 C   0  0
    0.2311   -1.4736    0.3089 C   0  0
   -0.9400   -0.6311    0.1841 C   0  0
   -3.3861   -0.2422   -0.3767 C   0  0
    1.4050   -3.6297    0.1634 C   0  0  2  0  0  0
   -3.6078    1.2132    0.2820 C   0  0  2  0  0  0
   -4.9621    1.8052   -0.0893 N   0  0
   -2.4767    2.2565    0.0744 C   0  0
   -1.2470    1.9489   -0.0656 N   0  0
   -2.6465    3.6909    0.0908 N   0  0
   -1.3482    4.1681   -0.0458 C   0  0
   -0.5053    3.0866   -0.1456 C   0  0
    0.8080    3.1848   -0.2675 C   0  0
    1.3808    4.5398   -0.3089 C   0  0
    0.5707    5.6056   -0.2176 C   0  0
   -0.8996    5.4206   -0.0728 C   0  0
    1.4023   -5.3075    0.9330 S   0  0
    3.0944   -5.2022    0.4806 N   0  0
    3.6369   -3.9225    0.3766 C   0  0
    2.6663   -2.8492    0.5293 C   0  0
    1.7432   -6.6715    0.3646 O   0  0
    0.1703   -5.6031    0.1142 O   0  0
    4.8253   -3.7127    0.1020 O   0  0
   -6.3856    1.1806    0.8246 S   0  0
   -7.9602    0.4192    0.4153 C   0  0
   -5.9635   -0.2288    0.4870 O   0  0
   -7.0681    2.2241   -0.0407 O   0  0
   -9.0684    1.1559    0.3240 C   0  0
  -10.3601    0.5129    0.0336 C   0  0
  -10.4312   -0.8103   -0.1344 C   0  0
   -9.2137   -1.6171   -0.0372 C   0  0
   -8.0434   -1.0370    0.2242 C   0  0
  -11.6608   -1.4477   -0.3973 O   0  0
  -12.7468   -0.5085   -0.4389 C   0  0
   -3.2382   -3.0005   -0.5201 H   0  0
   -1.3133   -4.4337   -0.2610 H   0  0
    1.2003   -1.0288    0.5347 H   0  0
   -0.8364    0.4423    0.3426 H   0  0
   -4.2416   -0.8420   -0.0662 H   0  0
   -3.4219   -0.0884   -1.4552 H   0  0
    1.5581   -3.8509   -0.8929 H   0  0
   -3.6509    1.0417    1.3576 H   0  0
   -5.1299    1.6087   -1.1276 H   0  0
   -3.5533    4.2510    0.1852 H   0  0
    1.4398    2.2991   -0.3345 H   0  0
    2.4572    4.6768   -0.4131 H   0  0
    0.9907    6.6109   -0.2496 H   0  0
   -1.5766    6.2710    0.0073 H   0  0
    3.6810   -6.0773    0.2938 H   0  0
    2.6320   -2.4691    1.5503 H   0  0
    2.8535   -2.0254   -0.1595 H   0  0
   -9.0173    2.2356    0.4647 H   0  0
  -11.2625    1.1191   -0.0446 H   0  0
   -9.2649   -2.6966   -0.1792 H   0  0
   -7.1417   -1.6452    0.2970 H   0  0
  -13.6776   -1.0374   -0.6438 H   0  0
  -12.5648    0.2236   -1.2257 H   0  0
  -12.8234    0.0019    0.5212 H   0  0
 17 18  2  0
  9  7  1  0
 18 19  1  0
 19 14  2  0
  8 20  1  0
  4  5  2  0
  9 10  1  0
  2  3  2  0
  9 11  1  0
 20 21  1  0
 21 22  1  0
 22 23  1  0
  8 23  1  0
 11 12  2  0
 20 24  2  0
  5  6  1  0
 20 25  2  0
  6  1  2  0
 22 26  2  0
 12 15  1  0
 10 27  1  0
 14 13  1  0
 27 28  1  0
 13 11  1  0
 27 29  2  0
  1  2  1  0
 27 30  2  0
  1  7  1  0
 28 31  2  0
 14 15  1  0
 31 32  1  0
  3  4  1  0
 32 33  2  0
 15 16  2  0
 33 34  1  0
  4  8  1  0
 34 35  2  0
 35 28  1  0
 16 17  1  0
 33 36  1  0
 36 37  1  0
  2 38  1  0
  3 39  1  0
  5 40  1  0
  6 41  1  0
  7 42  1  0
  7 43  1  0
  8 44  1  0
  9 45  1  0
 10 46  1  0
 13 47  1  0
 16 48  1  0
 17 49  1  0
 18 50  1  0
 19 51  1  0
 21 52  1  0
 23 53  1  0
 23 54  1  0
 31 55  1  0
 32 56  1  0
 34 57  1  0
 35 58  1  0
 37 59  1  0
 37 60  1  0
 37 61  1  0
M  END
> <Name>
Molecule

> <Clean Energy>
234.512

> <From>
www.bindingDB.org

> <BindingDB Reactant_set_id>
50350935

> <Ligand InChI>
InChI=1S/C25H24N4O6S2/c1-35-18-10-12-19(13-11-18)36(31,32)28-22(25-26-20-4-2-3-5-21(20)27-25)14-16-6-8-17(9-7-16)23-15-24(30)29-37(23,33)34/h2-13,22-23,28H,14-15H2,1H3,(H,26,27)(H,29,30)

> <Ligand InChI Key>
QJUBUUVBIMQGRE-UHFFFAOYSA-N

> <BindingDB MonomerID>
50189660

> <BindingDB Ligand Name>
CHEMBL211171::N-{1-(1H-benzoimidazol-2-yl)-2-[4-(1,1,3-trioxo-1lambda*6*-isothiazolidin-5-yl)-phenyl]-ethyl}-4-methoxy-benzenesulfonamide

> <Target Name>
Tyrosine-protein phosphatase non-receptor type 1

> <Target Source Organism According to Curator or DataSource>
Homo sapiens

> <IC50 (nM)>
94

> <Curation/DataSource>
ChEMBL

> <Article DOI>
10.1021/jm0600904

> <BindingDB Entry DOI>
10.7270/Q2JQ10M8

> <PMID>
16789735

> <Authors>
Combs, AP; Zhu, W; Crawley, ML; Glass, B; Polam, P; Sparks, RB; Modi, D; Takvorian, A; McLaughlin, E; Yue, EW; Wasserman, Z; Bower, M; Wei, M; Rupar, M; Ala, PJ; Reid, BM; Ellis, D; Gonneville, L; Emm
, T; Taylor, N; Yeleswaram, S; Li, Y; Wynn, R; Burn, TC; Hollis, G; Liu, PC; Metcalf, B

> <Institution>
Incyte Corporation

> <Link to Ligand in BindingDB>
http://www.bindingdb.org/bind/chemsearch/marvin/MolStructure.jsp?monomerid=50189660

> <Link to Ligand-Target Pair in BindingDB>
http://www.bindingdb.org/jsp/dbsearch/PrimarySearch_ki.jsp?energyterm=kJ/mole&tag=pol&polymerid=2622&target=Tyrosine-protein+phosphatase+non-receptor+type+1&column=ki&startPg=0&Increment=50&submit=Sea
rch
http://www.bindingdb.org/jsp/dbsearch/PrimarySearch_ki.jsp?energyterm=kJ/mole&tag=r21&monomerid=50189660&enzyme=Tyrosine-protein+phosphatase+non-receptor+type+1&column=ki&startPg=0&Increment=50&submit
=Search

> <PubChem CID of Ligand>
21878987

> <PubChem SID of Ligand>
104073181

> <ChEMBL ID of Ligand>
CHEMBL211171

> <ZINC ID of Ligand>
ZINC36088912

> <Number of Protein Chains in Target (bigger than 1 implies a multichain complex)>
1

> <BindingDB Target Chain Sequence>
MEMEKEFEQIDKSGSWAAIYQDIRHEASDFPCRVAKLPKNKNRNRYRDVSPFDHSRIKLHQEDNDYINASLIKMEEAQRSYILTQGPLPNTCGHFWEMVWEQKSRGVVMLNRVMEKGSLKCAQYWPQKEEKEMIFEDTNLKLTLISEDIKSYYTVRQLELENLTTQETREILHFHYTTWPDFGVPESPASFLNFLFKVRE
SGSLSPEHGPVVVHCSAGIGRSGTFCLADTCLLLMDKRKDPSSVDIKKVLLEMRKFRMGLIQTADQLRFSYLAVIEGAKFIMGDSSVQDQWKELSHEDLEPPPEHIPPPPRPPKRILEPHNGKCREFFPNHQWVKEETQEDKDCPIKEEKGSPLNAAPYGIESMSQDTEVRSRVVGGSLRGAQAASPAKGEPSLPEKDED
HALSYWKPFLVNMCVATVLTAGAYLCYRFLFNSNT

> <PDB ID(s) of Target Chain>
1BZJ,1G7G,1GFY,1JF7,1KAK,1KAV,1LQF,1NL9,1NNY,1NO6,1NZ7,1OEM,1OEO,1OES,1OET,1OEU,1OEV,1ONY,1ONZ,1PH0,1PXH,1PYN,1Q1M,1Q6J,1Q6M,1Q6N,1Q6P,1Q6S,1Q6T,1QXK,1SUG,1T48,1T49,1T4J,1WAX,1XBO,2AZR,2B07,2BGD,2BGE,
2CM2,2CM3,2CM7,2CM8,2CMA,2CMB,2CMC,2CNE,2CNF,2CNG,2CNH,2CNI,2F6T,2F6V,2F6W,2F6Y,2F6Z,2F70,2F71,2FJN,2H4G,2H4K,2HB1,2HNP,2HNQ,2QBP,2QBQ,2QBR,2QBS,2VEU,2VEV,2VEW,2VEX,2VEY,2ZMM,2ZN7,3A5J,3CWE,3D9C,3EAX,
3EB1,3EU0,3I7Z,3I80,3SME,4BJO,4I8N,4QBW,4Y14,5K9V,5K9W,5KA0,5KA1,5T19,6B90,6NTP,6W30,7KEY,7KLX,7LFO,7MN9,7MNA,8DU7,8G65,8G67,8G68,8G69,8G6A,8SKL

> <UniProt (SwissProt) Recommended Name of Target Chain>
Tyrosine-protein phosphatase non-receptor type 1

> <UniProt (SwissProt) Entry Name of Target Chain>
PTN1_HUMAN

> <UniProt (SwissProt) Primary ID of Target Chain>
P18031

> <UniProt (SwissProt) Secondary ID(s) of Target Chain>
Q5TGD8 Q9BQV9 Q9NQQ4

$$$$
Molecule
  SciTegic10242319433D

 68 73  0  0  0  0            999 V2000
    0.7026   -6.2824   -0.0226 C   0  0
    1.2709   -5.0183    0.0141 C   0  0
   -1.0012   -6.1236   -0.0365 S   0  0
    0.1330   -3.9364    0.0241 C   0  0
   -1.1638   -4.5058   -0.0038 C   0  0
   13.1960   -1.3063   -0.0132 C   0  0
   11.6920   -1.1044    0.1872 C   0  0  2  0  0  0
    2.8082   -4.6648    0.0376 C   0  0
    1.4404   -7.6535   -0.0369 C   0  0
   11.1267   -2.4434   -0.0852 O   0  0
    5.5581   -3.9009    0.0700 C   0  0
    6.9864   -3.4941    0.0687 C   0  0
   11.1101    0.1132   -0.6605 C   0  0
   13.9000   -0.4397   -0.5422 O   0  0
    3.1905   -3.3863    0.1933 C   0  0
    3.8925   -5.6680   -0.1149 C   0  0
    5.1799   -5.3099   -0.1063 C   0  0
    4.6040   -2.9909    0.2153 C   0  0
    7.9307   -4.3905   -0.1963 C   0  0
    7.3729   -2.0954    0.3445 C   0  0
    9.7118   -2.7297    0.0059 C   0  0
   13.7631   -2.5345    0.3085 O   0  0
    0.5830   -8.9502   -0.0221 C   0  0
    8.6612   -1.7333    0.3260 C   0  0
    9.3411   -3.9892   -0.2343 C   0  0
   11.5877    1.5453   -0.2726 C   0  0
    0.2569   -2.6023    0.0476 C   0  0
   -2.2885   -3.8089   -0.0067 C   0  0
   12.6374    1.7744    0.5225 C   0  0
   10.8357    2.6965   -0.7933 C   0  0
   -0.7497   -8.9388   -0.0072 C   0  0
    1.2729  -10.2480   -0.0219 C   0  0
   -0.9686   -1.7738    0.0473 C   0  0
   -2.1775   -2.3460    0.0222 C   0  0
   11.1991    3.9417   -0.4839 C   0  0
   -1.5187  -10.1836    0.0078 C   0  0
    0.5759  -11.3853   -0.0077 C   0  0
   13.0475    3.1440    0.8516 C   0  0
   12.3610    4.1778    0.3720 C   0  0
   -0.8864  -11.3532    0.0076 C   0  0
   11.5254   -0.8831    1.2414 H   0  0
    2.0525   -7.6815   -0.9383 H   0  0
    2.0849   -7.6826    0.8417 H   0  0
   11.3841   -0.0524   -1.7024 H   0  0
   10.0248    0.0919   -0.5619 H   0  0
    2.4262   -2.6175    0.3071 H   0  0
    3.6325   -6.7195   -0.2366 H   0  0
    5.9539   -6.0672   -0.2306 H   0  0
    4.8713   -1.9430    0.3520 H   0  0
    7.6562   -5.4282   -0.3860 H   0  0
    6.6047   -1.3541    0.5643 H   0  0
   13.6052   -2.7375    1.3265 H   0  0
    8.9391   -0.7027    0.5469 H   0  0
   10.1022   -4.7350   -0.4636 H   0  0
    1.2421   -2.1363    0.0666 H   0  0
   -3.2601   -4.3025   -0.0297 H   0  0
   13.1960    0.9326    0.9317 H   0  0
    9.9729    2.5306   -1.4384 H   0  0
   -1.2765   -7.9846   -0.0061 H   0  0
    2.3623  -10.2815   -0.0336 H   0  0
   -0.8859   -0.6871    0.0676 H   0  0
   -3.0758   -1.7286    0.0233 H   0  0
   10.6284    4.7862   -0.8702 H   0  0
   -2.6082  -10.1521    0.0190 H   0  0
    1.0980  -12.3421   -0.0074 H   0  0
   13.9149    3.3146    1.4893 H   0  0
   12.6632    5.1962    0.6161 H   0  0
   -1.4547  -12.2832    0.0188 H   0  0
  2  1  2  0
  3  1  1  0
  4  2  1  0
  5  3  1  0
  6  7  1  0
 10  7  1  0
  8  2  1  0
  9  1  1  0
 10 21  1  0
 11 17  1  0
 12 11  1  0
 13  7  1  0
 14  6  2  0
 15  8  2  0
 16  8  1  0
 17 16  2  0
 18 15  1  0
 19 12  2  0
 20 12  1  0
 21 24  1  0
 22  6  1  0
 23  9  1  0
 24 20  2  0
 25 19  1  0
 26 13  1  0
 27  4  2  0
 28  5  2  0
 29 26  2  0
 30 26  1  0
 31 23  2  0
 32 23  1  0
 33 27  1  0
 34 28  1  0
 35 30  2  0
 36 31  1  0
 37 32  2  0
 38 29  1  0
 39 35  1  0
 40 37  1  0
  4  5  1  0
 33 34  2  0
 11 18  2  0
 36 40  2  0
 25 21  2  0
 38 39  2  0
  7 41  1  0
  9 42  1  0
  9 43  1  0
 13 44  1  0
 13 45  1  0
 15 46  1  0
 16 47  1  0
 17 48  1  0
 18 49  1  0
 19 50  1  0
 20 51  1  0
 22 52  1  0
 24 53  1  0
 25 54  1  0
 27 55  1  0
 28 56  1  0
 29 57  1  0
 30 58  1  0
 31 59  1  0
 32 60  1  0
 33 61  1  0
 34 62  1  0
 35 63  1  0
 36 64  1  0
 37 65  1  0
 38 66  1  0
 39 67  1  0
 40 68  1  0
M  END
> <Name>
Molecule

> <Clean Energy>
46.8821

> <From>
www.bindingDB.org

> <BindingDB Reactant_set_id>
50154679

> <Ligand InChI>
InChI=1S/C36H28O3S/c37-36(38)32(23-25-9-3-1-4-10-25)39-30-21-19-28(20-22-30)27-15-17-29(18-16-27)35-31-13-7-8-14-33(31)40-34(35)24-26-11-5-2-6-12-26/h1-22,32H,23-24H2,(H,37,38)

> <Ligand InChI Key>
CNIJQNREKHYOAY-UHFFFAOYSA-N

> <BindingDB MonomerID>
50086989

> <BindingDB Ligand Name>
2-[4'-(2-Benzyl-benzo[b]thiophen-3-yl)-biphenyl-4-yloxy]-3-phenyl-propionic acid::CHEMBL24004

> <Target Name>
Tyrosine-protein phosphatase non-receptor type 1

> <Target Source Organism According to Curator or DataSource>
Homo sapiens

> <IC50 (nM)>
95

> <Curation/DataSource>
ChEMBL

> <Article DOI>
10.1021/jm990560c

> <BindingDB Entry DOI>
10.7270/Q2W958FT

> <PMID>
10753467

> <Authors>
Malamas, MS; Sredy, J; Moxham, C; Katz, A; Xu, W; McDevitt, R; Adebayo, FO; Sawicki, DR; Seestaller, L; Sullivan, D; Taylor, JR

> <Institution>
Wyeth-Ayerst Research

> <Link to Ligand in BindingDB>
http://www.bindingdb.org/bind/chemsearch/marvin/MolStructure.jsp?monomerid=50086989

> <Link to Ligand-Target Pair in BindingDB>
http://www.bindingdb.org/jsp/dbsearch/PrimarySearch_ki.jsp?energyterm=kJ/mole&tag=pol&polymerid=2622&target=Tyrosine-protein+phosphatase+non-receptor+type+1&column=ki&startPg=0&Increment=50&submit=Sea
rch
http://www.bindingdb.org/jsp/dbsearch/PrimarySearch_ki.jsp?energyterm=kJ/mole&tag=r21&monomerid=50086989&enzyme=Tyrosine-protein+phosphatase+non-receptor+type+1&column=ki&startPg=0&Increment=50&submit
=Search

> <PubChem CID of Ligand>
9850252

> <PubChem SID of Ligand>
103986100

> <ChEMBL ID of Ligand>
CHEMBL24004

> <ZINC ID of Ligand>
ZINC28757941

> <Number of Protein Chains in Target (bigger than 1 implies a multichain complex)>
1

> <BindingDB Target Chain Sequence>
MEMEKEFEQIDKSGSWAAIYQDIRHEASDFPCRVAKLPKNKNRNRYRDVSPFDHSRIKLHQEDNDYINASLIKMEEAQRSYILTQGPLPNTCGHFWEMVWEQKSRGVVMLNRVMEKGSLKCAQYWPQKEEKEMIFEDTNLKLTLISEDIKSYYTVRQLELENLTTQETREILHFHYTTWPDFGVPESPASFLNFLFKVRE
SGSLSPEHGPVVVHCSAGIGRSGTFCLADTCLLLMDKRKDPSSVDIKKVLLEMRKFRMGLIQTADQLRFSYLAVIEGAKFIMGDSSVQDQWKELSHEDLEPPPEHIPPPPRPPKRILEPHNGKCREFFPNHQWVKEETQEDKDCPIKEEKGSPLNAAPYGIESMSQDTEVRSRVVGGSLRGAQAASPAKGEPSLPEKDED
HALSYWKPFLVNMCVATVLTAGAYLCYRFLFNSNT

> <PDB ID(s) of Target Chain>
1BZJ,1G7G,1GFY,1JF7,1KAK,1KAV,1LQF,1NL9,1NNY,1NO6,1NZ7,1OEM,1OEO,1OES,1OET,1OEU,1OEV,1ONY,1ONZ,1PH0,1PXH,1PYN,1Q1M,1Q6J,1Q6M,1Q6N,1Q6P,1Q6S,1Q6T,1QXK,1SUG,1T48,1T49,1T4J,1WAX,1XBO,2AZR,2B07,2BGD,2BGE,
2CM2,2CM3,2CM7,2CM8,2CMA,2CMB,2CMC,2CNE,2CNF,2CNG,2CNH,2CNI,2F6T,2F6V,2F6W,2F6Y,2F6Z,2F70,2F71,2FJN,2H4G,2H4K,2HB1,2HNP,2HNQ,2QBP,2QBQ,2QBR,2QBS,2VEU,2VEV,2VEW,2VEX,2VEY,2ZMM,2ZN7,3A5J,3CWE,3D9C,3EAX,
3EB1,3EU0,3I7Z,3I80,3SME,4BJO,4I8N,4QBW,4Y14,5K9V,5K9W,5KA0,5KA1,5T19,6B90,6NTP,6W30,7KEY,7KLX,7LFO,7MN9,7MNA,8DU7,8G65,8G67,8G68,8G69,8G6A,8SKL

> <UniProt (SwissProt) Recommended Name of Target Chain>
Tyrosine-protein phosphatase non-receptor type 1

> <UniProt (SwissProt) Entry Name of Target Chain>
PTN1_HUMAN

> <UniProt (SwissProt) Primary ID of Target Chain>
P18031

> <UniProt (SwissProt) Secondary ID(s) of Target Chain>
Q5TGD8 Q9BQV9 Q9NQQ4

$$$$
Molecule
  SciTegic10242319433D

 68 73  0  0  0  0            999 V2000
   -3.2546  -18.1860   -0.1514 C   0  0
   -3.9874  -19.4712    0.0778 C   0  0
   -3.2430  -20.5481    0.3106 C   0  0
   -1.7972  -20.5072    0.3394 C   0  0
   -1.1484  -19.3699    0.1279 C   0  0
   -1.9147  -18.1440   -0.1329 C   0  0
    0.3251  -19.4103    0.1267 C   0  0
    0.9891  -20.6742    0.4512 C   0  0
    2.3143  -20.7788    0.4093 C   0  0
    3.1402  -19.6247    0.0199 C   0  0
    2.5334  -18.4634   -0.2506 C   0  0
    1.0583  -18.3442   -0.1945 C   0  0
   -5.5649  -19.5420    0.0439 C   0  0
   -7.9911  -20.2639    0.0115 S   0  0
   -6.3382  -20.6948    0.0572 C   0  0
   -7.8710  -18.6325   -0.0214 C   0  0
   -6.4903  -18.2918   -0.0063 C   0  0
   -6.1309  -17.0036   -0.0226 C   0  0
   -7.1967  -15.9740   -0.0601 C   0  0
   -8.4881  -16.3273   -0.0732 C   0  0
   -8.8564  -17.7497   -0.0514 C   0  0
    4.5771  -19.6981   -0.1233 O   0  0
   -5.8274  -22.1664    0.0883 C   0  0
   -6.8277  -23.3234    0.0489 C   0  0
   -8.1466  -23.1456    0.0208 C   0  0
   -9.0515  -24.2970   -0.0156 C   0  0
   -6.2914  -24.6904    0.0421 C   0  0
   -7.1117  -25.7386    0.0086 C   0  0
   -8.5579  -25.5333   -0.0213 C   0  0
    5.2706  -21.0010    0.0690 C   0  0  2  0  0  0
    6.8199  -20.7099   -0.1006 C   0  0
    7.8203  -21.8627    0.1207 C   0  0
    7.5021  -22.9767    0.7849 C   0  0
    8.4982  -24.0441    0.9618 C   0  0
    9.7273  -23.9025    0.4682 C   0  0
   10.0875  -22.6797   -0.2470 C   0  0
    9.1852  -21.7130   -0.4107 C   0  0
    4.8210  -22.0570   -0.9827 C   0  0
    3.8997  -21.8007   -1.7649 O   0  0
    5.4013  -23.3164   -1.0419 O   0  0
   -3.8184  -17.2715   -0.3360 H   0  0
   -3.7426  -21.5007    0.4870 H   0  0
   -1.2355  -21.4202    0.5368 H   0  0
   -1.3951  -17.2025   -0.3109 H   0  0
    0.3896  -21.5406    0.7307 H   0  0
    2.7914  -21.7249    0.6649 H   0  0
    3.1331  -17.5928   -0.5160 H   0  0
    0.5757  -17.3919   -0.4142 H   0  0
   -5.0792  -16.7176   -0.0087 H   0  0
   -6.9262  -14.9182   -0.0772 H   0  0
   -9.2639  -15.5621   -0.0999 H   0  0
   -9.8998  -18.0651   -0.0596 H   0  0
   -5.1696  -22.2895   -0.7721 H   0  0
   -5.2507  -22.2800    1.0063 H   0  0
   -8.5564  -22.1356    0.0250 H   0  0
  -10.1301  -24.1413   -0.0381 H   0  0
   -5.2131  -24.8482    0.0646 H   0  0
   -6.7044  -26.7496    0.0035 H   0  0
   -9.2309  -26.3902   -0.0482 H   0  0
    5.0751  -21.3765    1.0734 H   0  0
    6.9684  -20.3477   -1.1179 H   0  0
    7.0772  -19.9220    0.6073 H   0  0
    6.5002  -23.0953    1.1975 H   0  0
    8.2299  -24.9540    1.4986 H   0  0
   10.4627  -24.6967    0.5972 H   0  0
   11.0944  -22.5586   -0.6465 H   0  0
    9.4602  -20.8025   -0.9432 H   0  0
    6.4305  -23.2197   -1.2266 H   0  0
 18 19  1  0
  9 10  1  0
 19 20  2  0
  2  3  2  0
 20 21  1  0
 21 16  2  0
 10 11  2  0
 10 22  1  0
  5  6  1  0
 15 23  1  0
 11 12  1  0
 23 24  1  0
 12  7  2  0
 24 25  2  0
  5  7  1  0
 25 26  1  0
 26 29  2  0
 13 17  1  0
 28 27  2  0
 27 24  1  0
 28 29  1  0
  6  1  2  0
  1  2  1  0
  3  4  1  0
 30 22  1  0
 16 14  1  0
 30 31  1  0
 14 15  1  0
 31 32  1  0
 15 13  2  0
 32 33  2  0
  2 13  1  0
 33 34  1  0
  7  8  1  0
 34 35  2  0
 35 36  1  0
 16 17  1  0
 36 37  2  0
 37 32  1  0
  8  9  2  0
 30 38  1  0
 17 18  2  0
 38 39  2  0
  4  5  2  0
 38 40  1  0
  1 41  1  0
  3 42  1  0
  4 43  1  0
  6 44  1  0
  8 45  1  0
  9 46  1  0
 11 47  1  0
 12 48  1  0
 18 49  1  0
 19 50  1  0
 20 51  1  0
 21 52  1  0
 23 53  1  0
 23 54  1  0
 25 55  1  0
 26 56  1  0
 27 57  1  0
 28 58  1  0
 29 59  1  0
 30 60  1  0
 31 61  1  0
 31 62  1  0
 33 63  1  0
 34 64  1  0
 35 65  1  0
 36 66  1  0
 37 67  1  0
 40 68  1  0
M  END
> <Name>
Molecule

> <Clean Energy>
53.4942

> <From>
www.bindingDB.org

> <BindingDB Reactant_set_id>
51015960

> <Ligand InChI>
InChI=1S/C36H28O3S/c37-36(38)32(23-25-9-3-1-4-10-25)39-30-21-19-28(20-22-30)27-15-17-29(18-16-27)35-31-13-7-8-14-33(31)40-34(35)24-26-11-5-2-6-12-26/h1-22,32H,23-24H2,(H,37,38)/t32-/m1/s1

> <Ligand InChI Key>
CNIJQNREKHYOAY-JGCGQSQUSA-N

> <BindingDB MonomerID>
50416056

> <BindingDB Ligand Name>
CHEMBL1084871

> <Target Name>
Tyrosine-protein phosphatase non-receptor type 1

> <Target Source Organism According to Curator or DataSource>
Homo sapiens

> <IC50 (nM)>
95.5

> <Curation/DataSource>
ChEMBL

> <Article DOI>
10.1016/j.bmcl.2010.04.033

> <BindingDB Entry DOI>
10.7270/Q27D2WCC

> <PMID>
20452766

> <Authors>
Cheng, Y; Zhou, M; Tung, CH; Ji, M; Zhang, F

> <Institution>
Tsinghua University

> <Link to Ligand in BindingDB>
http://www.bindingdb.org/bind/chemsearch/marvin/MolStructure.jsp?monomerid=50416056

> <Link to Ligand-Target Pair in BindingDB>
http://www.bindingdb.org/jsp/dbsearch/PrimarySearch_ki.jsp?energyterm=kJ/mole&tag=pol&polymerid=2622&target=Tyrosine-protein+phosphatase+non-receptor+type+1&column=ki&startPg=0&Increment=50&submit=Sea
rch
http://www.bindingdb.org/jsp/dbsearch/PrimarySearch_ki.jsp?energyterm=kJ/mole&tag=r21&monomerid=50416056&enzyme=Tyrosine-protein+phosphatase+non-receptor+type+1&column=ki&startPg=0&Increment=50&submit
=Search

> <PubChem CID of Ligand>
10768812

> <PubChem SID of Ligand>
163365080

> <ChEMBL ID of Ligand>
CHEMBL1084871

> <ZINC ID of Ligand>
ZINC28757939

> <Number of Protein Chains in Target (bigger than 1 implies a multichain complex)>
1

> <BindingDB Target Chain Sequence>
MEMEKEFEQIDKSGSWAAIYQDIRHEASDFPCRVAKLPKNKNRNRYRDVSPFDHSRIKLHQEDNDYINASLIKMEEAQRSYILTQGPLPNTCGHFWEMVWEQKSRGVVMLNRVMEKGSLKCAQYWPQKEEKEMIFEDTNLKLTLISEDIKSYYTVRQLELENLTTQETREILHFHYTTWPDFGVPESPASFLNFLFKVRE
SGSLSPEHGPVVVHCSAGIGRSGTFCLADTCLLLMDKRKDPSSVDIKKVLLEMRKFRMGLIQTADQLRFSYLAVIEGAKFIMGDSSVQDQWKELSHEDLEPPPEHIPPPPRPPKRILEPHNGKCREFFPNHQWVKEETQEDKDCPIKEEKGSPLNAAPYGIESMSQDTEVRSRVVGGSLRGAQAASPAKGEPSLPEKDED
HALSYWKPFLVNMCVATVLTAGAYLCYRFLFNSNT

> <PDB ID(s) of Target Chain>
1BZJ,1G7G,1GFY,1JF7,1KAK,1KAV,1LQF,1NL9,1NNY,1NO6,1NZ7,1OEM,1OEO,1OES,1OET,1OEU,1OEV,1ONY,1ONZ,1PH0,1PXH,1PYN,1Q1M,1Q6J,1Q6M,1Q6N,1Q6P,1Q6S,1Q6T,1QXK,1SUG,1T48,1T49,1T4J,1WAX,1XBO,2AZR,2B07,2BGD,2BGE,
2CM2,2CM3,2CM7,2CM8,2CMA,2CMB,2CMC,2CNE,2CNF,2CNG,2CNH,2CNI,2F6T,2F6V,2F6W,2F6Y,2F6Z,2F70,2F71,2FJN,2H4G,2H4K,2HB1,2HNP,2HNQ,2QBP,2QBQ,2QBR,2QBS,2VEU,2VEV,2VEW,2VEX,2VEY,2ZMM,2ZN7,3A5J,3CWE,3D9C,3EAX,
3EB1,3EU0,3I7Z,3I80,3SME,4BJO,4I8N,4QBW,4Y14,5K9V,5K9W,5KA0,5KA1,5T19,6B90,6NTP,6W30,7KEY,7KLX,7LFO,7MN9,7MNA,8DU7,8G65,8G67,8G68,8G69,8G6A,8SKL

> <UniProt (SwissProt) Recommended Name of Target Chain>
Tyrosine-protein phosphatase non-receptor type 1

> <UniProt (SwissProt) Entry Name of Target Chain>
PTN1_HUMAN

> <UniProt (SwissProt) Primary ID of Target Chain>
P18031

> <UniProt (SwissProt) Secondary ID(s) of Target Chain>
Q5TGD8 Q9BQV9 Q9NQQ4

$$$$
Molecule
  SciTegic10242319433D

 48 50  0  0  0  0            999 V2000
   14.6778  -23.2295    0.1132 C   0  0
   14.6413  -24.5495   -0.0687 C   0  0
   15.9077  -25.3005   -0.1149 C   0  0
   15.9616  -22.5348    0.2590 C   0  0
   17.0989  -23.2189    0.2087 C   0  0
   17.0786  -24.6669    0.0234 C   0  0
   18.3679  -25.4609   -0.0091 C   0  0
   19.5274  -24.6978    0.4356 O   0  0
   19.5482  -23.4032   -0.1618 C   0  0  1  0  0  0
   18.4045  -22.5114    0.3593 C   0  0
   20.8633  -22.7257    0.0969 C   0  0
   21.8956  -23.3979    0.1993 O   0  0
   20.9194  -21.3413    0.2260 O   0  0
   13.4052  -25.2695   -0.2193 N   0  0
   12.1715  -24.7418   -0.0712 C   0  0
   10.9618  -25.6253   -0.2826 C   0  0
   11.9967  -23.5575    0.2336 O   0  0
    9.6709  -24.8362    0.0506 C   0  0
    8.4182  -25.6933   -0.2613 C   0  0
    7.1455  -24.8980    0.1139 C   0  0
    4.5535  -24.9389    0.0845 C   0  0
    3.3753  -25.8636   -0.4152 C   0  0
    3.7444  -27.5177    0.2365 S   0  0
    5.7563  -27.2736    0.5112 S   0  0
    5.8753  -25.6776   -0.3021 C   0  0  2  0  0  0
   13.7477  -22.6626    0.1539 H   0  0
   15.8912  -26.3803   -0.2628 H   0  0
   15.9822  -21.4553    0.4088 H   0  0
   18.2557  -26.3290    0.6404 H   0  0
   18.5440  -25.7924   -1.0324 H   0  0
   19.4284  -23.5203   -1.2388 H   0  0
   18.3807  -21.5837   -0.2124 H   0  0
   18.5736  -22.2857    1.4122 H   0  0
   20.5727  -20.8926   -0.6578 H   0  0
   13.4688  -26.3080   -0.4691 H   0  0
   10.9287  -25.9505   -1.3225 H   0  0
   11.0317  -26.4963    0.3690 H   0  0
    9.6729  -24.5751    1.1089 H   0  0
    9.6417  -23.9262   -0.5486 H   0  0
    8.3970  -25.9327   -1.3245 H   0  0
    8.4549  -26.6154    0.3186 H   0  0
    7.1293  -24.7355    1.1916 H   0  0
    7.1597  -23.9363   -0.3989 H   0  0
    4.5058  -23.9667   -0.4060 H   0  0
    4.4970  -24.8046    1.1648 H   0  0
    2.4209  -25.5064   -0.0283 H   0  0
    3.3422  -25.8824   -1.5046 H   0  0
    5.8920  -25.8310   -1.3811 H   0  0
  1  2  2  0
  2  3  1  0
  3  6  2  0
  5  4  2  0
  4  1  1  0
  5  6  1  0
  5 10  1  0
  6  7  1  0
  7  8  1  0
  9  8  1  0
  9 10  1  0
  9 11  1  0
 11 12  2  0
 11 13  1  0
  2 14  1  0
 14 15  1  0
 15 16  1  0
 15 17  2  0
 16 18  1  0
 18 19  1  0
 19 20  1  0
 21 22  1  0
 22 23  1  0
 23 24  1  0
 24 25  1  0
 25 21  1  0
 20 25  1  0
  1 26  1  0
  3 27  1  0
  4 28  1  0
  7 29  1  0
  7 30  1  0
  9 31  1  0
 10 32  1  0
 10 33  1  0
 13 34  1  0
 14 35  1  0
 16 36  1  0
 16 37  1  0
 18 38  1  0
 18 39  1  0
 19 40  1  0
 19 41  1  0
 20 42  1  0
 20 43  1  0
 21 44  1  0
 21 45  1  0
 22 46  1  0
 22 47  1  0
 25 48  1  0
M  END
> <Name>
Molecule

> <Clean Energy>
29.7197

> <From>
www.bindingDB.org

> <BindingDB Reactant_set_id>
50513461

> <Ligand InChI>
InChI=1S/C18H23NO4S2/c20-17(4-2-1-3-15-7-8-24-25-15)19-14-6-5-12-10-16(18(21)22)23-11-13(12)9-14/h5-6,9,15-16H,1-4,7-8,10-11H2,(H,19,20)(H,21,22)/t15?,16-/m0/s1

> <Ligand InChI Key>
KRQHPRIBLJFGIT-LYKKTTPLSA-N

> <BindingDB MonomerID>
50296380

> <BindingDB Ligand Name>
(3S)-7-[4-(1,2-Dithiolan-3-yl)butylcarboxamido]-isochroman-3-carboxylic acid::CHEMBL556914

> <Target Name>
Tyrosine-protein phosphatase non-receptor type 1

> <Target Source Organism According to Curator or DataSource>
Homo sapiens

> <IC50 (nM)>
95.67

> <Curation/DataSource>
ChEMBL

> <Article DOI>
10.1016/j.ejmech.2009.03.009

> <BindingDB Entry DOI>
10.7270/Q2FJ2GTG

> <PMID>
19349096

> <Authors>
Lakshminarayana, N; Rajendra Prasad, Y; Gharat, L; Thomas, A; Ravikumar, P; Narayanan, S; Srinivasan, CV; Gopalan, B

> <Institution>
Glenmark Research Center

> <Link to Ligand in BindingDB>
http://www.bindingdb.org/bind/chemsearch/marvin/MolStructure.jsp?monomerid=50296380

> <Link to Ligand-Target Pair in BindingDB>
http://www.bindingdb.org/jsp/dbsearch/PrimarySearch_ki.jsp?energyterm=kJ/mole&tag=pol&polymerid=2622&target=Tyrosine-protein+phosphatase+non-receptor+type+1&column=ki&startPg=0&Increment=50&submit=Sea
rch
http://www.bindingdb.org/jsp/dbsearch/PrimarySearch_ki.jsp?energyterm=kJ/mole&tag=r21&monomerid=50296380&enzyme=Tyrosine-protein+phosphatase+non-receptor+type+1&column=ki&startPg=0&Increment=50&submit
=Search

> <PubChem CID of Ligand>
44139927

> <PubChem SID of Ligand>
104137911

> <ChEMBL ID of Ligand>
CHEMBL556914

> <KEGG ID of Ligand>
C02051

> <ZINC ID of Ligand>
ZINC42922719

> <Number of Protein Chains in Target (bigger than 1 implies a multichain complex)>
1

> <BindingDB Target Chain Sequence>
MEMEKEFEQIDKSGSWAAIYQDIRHEASDFPCRVAKLPKNKNRNRYRDVSPFDHSRIKLHQEDNDYINASLIKMEEAQRSYILTQGPLPNTCGHFWEMVWEQKSRGVVMLNRVMEKGSLKCAQYWPQKEEKEMIFEDTNLKLTLISEDIKSYYTVRQLELENLTTQETREILHFHYTTWPDFGVPESPASFLNFLFKVRE
SGSLSPEHGPVVVHCSAGIGRSGTFCLADTCLLLMDKRKDPSSVDIKKVLLEMRKFRMGLIQTADQLRFSYLAVIEGAKFIMGDSSVQDQWKELSHEDLEPPPEHIPPPPRPPKRILEPHNGKCREFFPNHQWVKEETQEDKDCPIKEEKGSPLNAAPYGIESMSQDTEVRSRVVGGSLRGAQAASPAKGEPSLPEKDED
HALSYWKPFLVNMCVATVLTAGAYLCYRFLFNSNT

> <PDB ID(s) of Target Chain>
1BZJ,1G7G,1GFY,1JF7,1KAK,1KAV,1LQF,1NL9,1NNY,1NO6,1NZ7,1OEM,1OEO,1OES,1OET,1OEU,1OEV,1ONY,1ONZ,1PH0,1PXH,1PYN,1Q1M,1Q6J,1Q6M,1Q6N,1Q6P,1Q6S,1Q6T,1QXK,1SUG,1T48,1T49,1T4J,1WAX,1XBO,2AZR,2B07,2BGD,2BGE,
2CM2,2CM3,2CM7,2CM8,2CMA,2CMB,2CMC,2CNE,2CNF,2CNG,2CNH,2CNI,2F6T,2F6V,2F6W,2F6Y,2F6Z,2F70,2F71,2FJN,2H4G,2H4K,2HB1,2HNP,2HNQ,2QBP,2QBQ,2QBR,2QBS,2VEU,2VEV,2VEW,2VEX,2VEY,2ZMM,2ZN7,3A5J,3CWE,3D9C,3EAX,
3EB1,3EU0,3I7Z,3I80,3SME,4BJO,4I8N,4QBW,4Y14,5K9V,5K9W,5KA0,5KA1,5T19,6B90,6NTP,6W30,7KEY,7KLX,7LFO,7MN9,7MNA,8DU7,8G65,8G67,8G68,8G69,8G6A,8SKL

> <UniProt (SwissProt) Recommended Name of Target Chain>
Tyrosine-protein phosphatase non-receptor type 1

> <UniProt (SwissProt) Entry Name of Target Chain>
PTN1_HUMAN

> <UniProt (SwissProt) Primary ID of Target Chain>
P18031

> <UniProt (SwissProt) Secondary ID(s) of Target Chain>
Q5TGD8 Q9BQV9 Q9NQQ4

$$$$
Molecule
  SciTegic10242319433D

 75 80  0  0  0  0            999 V2000
   -3.0349   -4.9114   -0.2550 N   0  0
   -2.4748   -5.9387    0.5312 N   0  0
   -2.3732   -3.4613   -0.4875 C   0  0  1  0  0  0
    5.6919   -4.1283    0.2419 P   0  0
    4.6264   -2.9963   -0.3727 C   0  0
   -3.2313   -6.9114    0.6468 N   0  0
   -4.3278   -5.4421   -0.6680 C   0  0
   -4.4078   -6.6672   -0.0468 C   0  0
    3.1691   -3.4405   -0.3924 C   0  0
   -1.5845   -2.5884    0.6227 C   0  0
   -1.1247   -4.4531   -0.1293 C   0  0
    5.3558   -4.4637    1.5387 O   0  0
   -3.6718   -2.9098    0.2108 C   0  0
    4.6918   -1.8792    0.4357 F   0  0
    4.9903   -2.6020   -1.6400 F   0  0
    5.6822   -5.3956   -0.6462 O   0  0
    7.1176   -3.5142    0.2421 O   0  0
    2.3110   -2.8103   -1.1967 C   0  0
    2.6804   -4.4928    0.4949 C   0  0
   -0.7070    3.0399   -0.5563 O   0  0
    0.4094   -4.0724   -0.3242 C   0  0
   -1.3432   -1.0583    0.2946 C   0  0
   -0.8776    1.6734   -0.2617 C   0  0
    1.3823   -4.7914    0.5273 C   0  0
    0.8746   -3.1426   -1.1776 C   0  0
    0.2594    3.6750    0.2861 C   0  0
   -5.3153   -4.9674   -1.4197 C   0  0
   -1.9108   -0.4550   -0.7524 C   0  0
   -0.4302   -0.2662    1.1477 C   0  0
   -0.2007    1.0250    0.8785 C   0  0
   -1.6888    0.9559   -1.0296 C   0  0
    0.1322    5.1700    0.1392 C   0  0
   -5.4837   -7.4531   -0.1271 C   0  0
   -4.5067   -2.1085   -0.4730 C   0  0
   -4.0110   -3.2614    1.6135 C   0  0
    1.1860    5.9569    0.3522 C   0  0
   -1.1609    5.7623   -0.2235 C   0  0
   -6.5393   -5.7892   -1.5557 C   0  0
   -6.6203   -6.9703   -0.9292 C   0  0
   -5.1346   -2.7982    2.1610 C   0  0
   -5.7262   -1.5979    0.1389 C   0  0
   -1.2825    7.0848   -0.3343 C   0  0
    1.0547    7.4126    0.2160 C   0  0
   -0.1212    7.9493   -0.1069 C   0  0
   -6.0309   -1.9298    1.3900 C   0  0
   -2.1569   -2.6399    1.5489 H   0  0
   -0.6086   -3.0506    0.7719 H   0  0
   -1.2355   -4.6946    0.9278 H   0  0
   -1.2826   -5.3513   -0.7262 H   0  0
    4.7150   -5.8039   -0.6637 H   0  0
    7.3907   -3.2618   -0.7399 H   0  0
    2.6764   -2.0403   -1.8762 H   0  0
    3.3792   -5.0349    1.1321 H   0  0
    1.0310   -5.5797    1.1930 H   0  0
    0.1890   -2.6344   -1.8557 H   0  0
    0.0806    3.3935    1.3238 H   0  0
    1.2615    3.3631   -0.0081 H   0  0
   -5.2270   -4.0033   -1.9204 H   0  0
   -2.5553   -1.0328   -1.4149 H   0  0
    0.0587   -0.7368    2.0007 H   0  0
    0.4862    1.5976    1.5015 H   0  0
   -2.1922    1.4272   -1.8737 H   0  0
   -5.5196   -8.4162    0.3821 H   0  0
   -4.2676   -1.8365   -1.5010 H   0  0
   -3.3425   -3.8971    2.1940 H   0  0
    2.1457    5.5198    0.6276 H   0  0
   -2.0229    5.1196   -0.4025 H   0  0
   -7.3715   -5.4344   -2.1636 H   0  0
   -7.5250   -7.5724   -1.0129 H   0  0
   -5.3886   -3.0660    3.1866 H   0  0
   -6.3886   -0.9441   -0.4285 H   0  0
   -2.2459    7.5235   -0.5941 H   0  0
    1.9201    8.0550    0.3793 H   0  0
   -0.2194    9.0307   -0.2020 H   0  0
   -6.9487   -1.5558    1.8436 H   0  0
  2  1  1  0
  3  1  1  0
  4  5  1  0
  5  9  1  0
  6  2  2  0
  7  1  1  0
  8  7  1  0
  9 18  2  0
 10  3  1  0
 11  3  1  0
 12  4  2  0
 13  3  1  0
 14  5  1  0
 15  5  1  0
 16  4  1  0
 17  4  1  0
 18 25  1  0
 19 24  2  0
 20 23  1  0
 21 11  1  0
 22 10  1  0
 23 30  1  0
 24 21  1  0
 25 21  2  0
 26 20  1  0
 27  7  2  0
 28 22  2  0
 29 22  1  0
 30 29  2  0
 31 28  1  0
 32 26  1  0
 33  8  2  0
 34 13  2  0
 35 13  1  0
 36 32  2  0
 37 32  1  0
 38 27  1  0
 39 38  2  0
 40 35  2  0
 41 34  1  0
 42 37  2  0
 43 36  1  0
 44 42  1  0
 45 40  1  0
  6  8  1  0
 33 39  1  0
 45 41  2  0
  9 19  1  0
 31 23  2  0
 44 43  2  0
 10 46  1  0
 10 47  1  0
 11 48  1  0
 11 49  1  0
 16 50  1  0
 17 51  1  0
 18 52  1  0
 19 53  1  0
 24 54  1  0
 25 55  1  0
 26 56  1  0
 26 57  1  0
 27 58  1  0
 28 59  1  0
 29 60  1  0
 30 61  1  0
 31 62  1  0
 33 63  1  0
 34 64  1  0
 35 65  1  0
 36 66  1  0
 37 67  1  0
 38 68  1  0
 39 69  1  0
 40 70  1  0
 41 71  1  0
 42 72  1  0
 43 73  1  0
 44 74  1  0
 45 75  1  0
M  END
> <Name>
Molecule

> <Clean Energy>
179.253

> <From>
www.bindingDB.org

> <BindingDB Reactant_set_id>
50026903

> <Ligand InChI>
InChI=1S/C35H30F2N3O4P/c36-35(37,45(41,42)43)30-19-15-26(16-20-30)23-34(29-11-5-2-6-12-29,40-33-14-8-7-13-32(33)38-39-40)24-27-17-21-31(22-18-27)44-25-28-9-3-1-4-10-28/h1-22H,23-25H2,(H2,41,42,43)

> <Ligand InChI Key>
QYFIFOCIAJOQNA-UHFFFAOYSA-N

> <BindingDB MonomerID>
50142334

> <BindingDB Ligand Name>
({4-[2-Benzotriazol-1-yl-3-(4-benzyloxy-phenyl)-2-phenyl-propyl]-phenyl}-difluoro-methyl)-phosphonic acid::CHEMBL9374

> <Target Name>
Tyrosine-protein phosphatase non-receptor type 1

> <Target Source Organism According to Curator or DataSource>
Homo sapiens

> <IC50 (nM)>
98

> <Curation/DataSource>
ChEMBL

> <Article DOI>
10.1016/j.bmcl.2003.11.076

> <BindingDB Entry DOI>
10.7270/Q24M9404

> <PMID>
15013020

> <Authors>
Lau, CK; Bayly, CI; Gauthier, JY; Li, CS; Therien, M; Asante-Appiah, E; Cromlish, W; Boie, Y; Forghani, F; Desmarais, S; Wang, Q; Skorey, K; Waddleton, D; Payette, P; Ramachandran, C; Kennedy, BP; Sca
pin, G

> <Institution>
Merck Frosst Centre for Therapeutic Research

> <Link to Ligand in BindingDB>
http://www.bindingdb.org/bind/chemsearch/marvin/MolStructure.jsp?monomerid=50142334

> <Link to Ligand-Target Pair in BindingDB>
http://www.bindingdb.org/jsp/dbsearch/PrimarySearch_ki.jsp?energyterm=kJ/mole&tag=pol&polymerid=2622&target=Tyrosine-protein+phosphatase+non-receptor+type+1&column=ki&startPg=0&Increment=50&submit=Sea
rch
http://www.bindingdb.org/jsp/dbsearch/PrimarySearch_ki.jsp?energyterm=kJ/mole&tag=r21&monomerid=50142334&enzyme=Tyrosine-protein+phosphatase+non-receptor+type+1&column=ki&startPg=0&Increment=50&submit
=Search

> <PubChem CID of Ligand>
44265863

> <PubChem SID of Ligand>
104031725

> <ChEMBL ID of Ligand>
CHEMBL9374

> <ZINC ID of Ligand>
ZINC25997496

> <Number of Protein Chains in Target (bigger than 1 implies a multichain complex)>
1

> <BindingDB Target Chain Sequence>
MEMEKEFEQIDKSGSWAAIYQDIRHEASDFPCRVAKLPKNKNRNRYRDVSPFDHSRIKLHQEDNDYINASLIKMEEAQRSYILTQGPLPNTCGHFWEMVWEQKSRGVVMLNRVMEKGSLKCAQYWPQKEEKEMIFEDTNLKLTLISEDIKSYYTVRQLELENLTTQETREILHFHYTTWPDFGVPESPASFLNFLFKVRE
SGSLSPEHGPVVVHCSAGIGRSGTFCLADTCLLLMDKRKDPSSVDIKKVLLEMRKFRMGLIQTADQLRFSYLAVIEGAKFIMGDSSVQDQWKELSHEDLEPPPEHIPPPPRPPKRILEPHNGKCREFFPNHQWVKEETQEDKDCPIKEEKGSPLNAAPYGIESMSQDTEVRSRVVGGSLRGAQAASPAKGEPSLPEKDED
HALSYWKPFLVNMCVATVLTAGAYLCYRFLFNSNT

> <PDB ID(s) of Target Chain>
1BZJ,1G7G,1GFY,1JF7,1KAK,1KAV,1LQF,1NL9,1NNY,1NO6,1NZ7,1OEM,1OEO,1OES,1OET,1OEU,1OEV,1ONY,1ONZ,1PH0,1PXH,1PYN,1Q1M,1Q6J,1Q6M,1Q6N,1Q6P,1Q6S,1Q6T,1QXK,1SUG,1T48,1T49,1T4J,1WAX,1XBO,2AZR,2B07,2BGD,2BGE,
2CM2,2CM3,2CM7,2CM8,2CMA,2CMB,2CMC,2CNE,2CNF,2CNG,2CNH,2CNI,2F6T,2F6V,2F6W,2F6Y,2F6Z,2F70,2F71,2FJN,2H4G,2H4K,2HB1,2HNP,2HNQ,2QBP,2QBQ,2QBR,2QBS,2VEU,2VEV,2VEW,2VEX,2VEY,2ZMM,2ZN7,3A5J,3CWE,3D9C,3EAX,
3EB1,3EU0,3I7Z,3I80,3SME,4BJO,4I8N,4QBW,4Y14,5K9V,5K9W,5KA0,5KA1,5T19,6B90,6NTP,6W30,7KEY,7KLX,7LFO,7MN9,7MNA,8DU7,8G65,8G67,8G68,8G69,8G6A,8SKL

> <UniProt (SwissProt) Recommended Name of Target Chain>
Tyrosine-protein phosphatase non-receptor type 1

> <UniProt (SwissProt) Entry Name of Target Chain>
PTN1_HUMAN

> <UniProt (SwissProt) Primary ID of Target Chain>
P18031

> <UniProt (SwissProt) Secondary ID(s) of Target Chain>
Q5TGD8 Q9BQV9 Q9NQQ4

$$$$
Molecule
  SciTegic10242319433D

 64 68  0  0  0  0            999 V2000
    6.0438  -26.0495    0.1439 C   0  0
    6.0435  -27.5008    0.1060 C   0  0
    7.2056  -28.1529    0.1678 C   0  0
    8.4962  -27.4325    0.2423 C   0  0
    8.5103  -26.1190    0.2458 C   0  0
    7.2017  -25.3865    0.2308 C   0  0
    9.9020  -28.5167    0.0087 S   0  0
   11.6840  -28.4376   -0.1935 N   0  0
    9.7980  -28.1838   -1.4600 O   0  0
    9.4431  -29.9452    0.1357 O   0  0
   12.7683  -27.5815    0.3216 C   0  0  3  0  0  0
   14.0391  -28.2508   -0.4271 C   0  0
   15.4762  -27.7430   -0.2270 C   0  0
   12.5843  -26.0983    0.0018 C   0  0
   16.4835  -28.3784   -0.8419 C   0  0
   17.8761  -27.8916   -0.6993 C   0  0
   18.1097  -26.7990    0.0287 C   0  0
   17.0105  -26.1231    0.6863 C   0  0
   15.7708  -26.5762    0.5774 C   0  0
   19.4881  -26.2405    0.2234 C   0  0  1  0  0  0
   20.6160  -26.6362   -0.7403 C   0  0
   21.7309  -25.6743   -0.2273 C   0  0
   21.2625  -24.4842    0.4138 N   0  0
   19.5911  -24.4819    0.3469 S   0  0
   22.9350  -25.9190   -0.3600 O   0  0
   18.8855  -23.9237    1.5683 O   0  0
   19.1263  -23.8133   -0.9338 O   0  0
   13.6046  -25.2867   -0.4949 N   0  0
   11.5271  -25.4126    0.2029 N   0  0
   11.8631  -24.0843   -0.1630 C   0  0
   13.1152  -24.0133   -0.5682 C   0  0
   10.9869  -22.9213   -0.0865 C   0  0
   11.4948  -21.7126   -0.3437 C   0  0
   10.6376  -20.5315   -0.2758 C   0  0
    9.3493  -20.6607    0.0306 C   0  0
    8.7991  -21.9846    0.3075 C   0  0
    9.5889  -23.0527    0.2558 C   0  0
    4.7572  -28.2924   -0.0315 C   0  0
    4.0572  -28.2125    1.1508 F   0  0
    5.0195  -29.6180   -0.3259 F   0  0
    3.9620  -27.7124   -1.0038 F   0  0
    5.1024  -25.5017    0.1017 H   0  0
    7.2046  -29.2429    0.1634 H   0  0
    9.4534  -25.5728    0.2593 H   0  0
    7.1944  -24.2982    0.2916 H   0  0
   11.9960  -29.4154    0.1090 H   0  0
   12.8632  -27.7164    1.3991 H   0  0
   14.0453  -29.3005   -0.1332 H   0  0
   13.8366  -28.1732   -1.4953 H   0  0
   16.2772  -29.2588   -1.4506 H   0  0
   18.6981  -28.4194   -1.1829 H   0  0
   17.2061  -25.2294    1.2788 H   0  0
   14.9627  -26.0643    1.0998 H   0  0
   19.8071  -26.6106    1.1978 H   0  0
   20.3528  -26.4380   -1.7793 H   0  0
   20.8982  -27.6832   -0.6298 H   0  0
   21.8745  -23.7276    0.8586 H   0  0
   14.5895  -25.6034   -0.7681 H   0  0
   13.6504  -23.1217   -0.8947 H   0  0
   12.5481  -21.6078   -0.6040 H   0  0
   11.0536  -19.5441   -0.4763 H   0  0
    8.7068  -19.7813    0.0747 H   0  0
    7.7437  -22.0968    0.5558 H   0  0
    9.1777  -24.0383    0.4741 H   0  0
  4  5  2  0
  7 10  2  0
  2  3  2  0
 11  8  1  0
  5  6  1  0
 21 22  1  0
 22 23  1  0
 23 24  1  0
 24 20  1  0
 20 17  1  0
 11 12  1  0
 22 25  2  0
  6  1  2  0
 24 26  2  0
 12 13  1  0
 24 27  2  0
 14 28  1  0
  1  2  1  0
 11 14  1  0
 28 31  1  0
 30 29  1  0
 29 14  2  0
  4  7  1  0
 13 15  2  0
 30 31  2  0
  3  4  1  0
 30 32  1  0
 15 16  1  0
 32 33  2  0
  7  8  1  0
 33 34  1  0
 16 17  2  0
 34 35  2  0
 35 36  1  0
 17 18  1  0
 36 37  2  0
 37 32  1  0
  7  9  2  0
  2 38  1  0
 18 19  2  0
 38 39  1  0
 19 13  1  0
 38 40  1  0
 20 21  1  0
 38 41  1  0
  1 42  1  0
  3 43  1  0
  5 44  1  0
  6 45  1  0
  8 46  1  0
 11 47  1  0
 12 48  1  0
 12 49  1  0
 15 50  1  0
 16 51  1  0
 18 52  1  0
 19 53  1  0
 20 54  1  0
 21 55  1  0
 21 56  1  0
 23 57  1  0
 28 58  1  0
 31 59  1  0
 33 60  1  0
 34 61  1  0
 35 62  1  0
 36 63  1  0
 37 64  1  0
M  END
> <Name>
Molecule

> <Clean Energy>
134.463

> <From>
www.bindingDB.org

> <BindingDB Reactant_set_id>
50406915

> <Ligand InChI>
InChI=1S/C27H23F3N4O5S2/c28-27(29,30)20-7-4-8-21(14-20)40(36,37)33-22(26-31-16-23(32-26)18-5-2-1-3-6-18)13-17-9-11-19(12-10-17)24-15-25(35)34-41(24,38)39/h1-12,14,16,22,24,33H,13,15H2,(H,31,32)(H,34,3
5)

> <Ligand InChI Key>
WAMRMRXFJBBXMX-UHFFFAOYSA-N

> <BindingDB MonomerID>
50228032

> <BindingDB Ligand Name>
CHEMBL403908::N-{1-(5-phenyl-1H-imidazol-2-yl)-2-[4-(1,1,3-trioxo-1lambda6-isothiazolidin-5-yl)-phenyl]-ethyl}-3-trifluoromethyl-benzenesulfonamide

> <Target Name>
Tyrosine-protein phosphatase non-receptor type 1

> <Target Source Organism According to Curator or DataSource>
Homo sapiens

> <IC50 (nM)>
100

> <Curation/DataSource>
ChEMBL

> <Article DOI>
10.1016/j.bmcl.2007.11.012

> <BindingDB Entry DOI>
10.7270/Q2BV7GCQ

> <PMID>
18037290

> <Authors>
Douty, B; Wayland, B; Ala, PJ; Bower, MJ; Pruitt, J; Bostrom, L; Wei, M; Klabe, R; Gonneville, L; Wynn, R; Burn, TC; Liu, PC; Combs, AP; Yue, EW

> <Institution>
Incyte Corporation

> <Link to Ligand in BindingDB>
http://www.bindingdb.org/bind/chemsearch/marvin/MolStructure.jsp?monomerid=50228032

> <Link to Ligand-Target Pair in BindingDB>
http://www.bindingdb.org/jsp/dbsearch/PrimarySearch_ki.jsp?energyterm=kJ/mole&tag=pol&polymerid=2622&target=Tyrosine-protein+phosphatase+non-receptor+type+1&column=ki&startPg=0&Increment=50&submit=Sea
rch
http://www.bindingdb.org/jsp/dbsearch/PrimarySearch_ki.jsp?energyterm=kJ/mole&tag=r21&monomerid=50228032&enzyme=Tyrosine-protein+phosphatase+non-receptor+type+1&column=ki&startPg=0&Increment=50&submit
=Search

> <PubChem CID of Ligand>
44446132

> <PubChem SID of Ligand>
104097719

> <ChEMBL ID of Ligand>
CHEMBL403908

> <ZINC ID of Ligand>
ZINC28977779

> <Number of Protein Chains in Target (bigger than 1 implies a multichain complex)>
1

> <BindingDB Target Chain Sequence>
MEMEKEFEQIDKSGSWAAIYQDIRHEASDFPCRVAKLPKNKNRNRYRDVSPFDHSRIKLHQEDNDYINASLIKMEEAQRSYILTQGPLPNTCGHFWEMVWEQKSRGVVMLNRVMEKGSLKCAQYWPQKEEKEMIFEDTNLKLTLISEDIKSYYTVRQLELENLTTQETREILHFHYTTWPDFGVPESPASFLNFLFKVRE
SGSLSPEHGPVVVHCSAGIGRSGTFCLADTCLLLMDKRKDPSSVDIKKVLLEMRKFRMGLIQTADQLRFSYLAVIEGAKFIMGDSSVQDQWKELSHEDLEPPPEHIPPPPRPPKRILEPHNGKCREFFPNHQWVKEETQEDKDCPIKEEKGSPLNAAPYGIESMSQDTEVRSRVVGGSLRGAQAASPAKGEPSLPEKDED
HALSYWKPFLVNMCVATVLTAGAYLCYRFLFNSNT

> <PDB ID(s) of Target Chain>
1BZJ,1G7G,1GFY,1JF7,1KAK,1KAV,1LQF,1NL9,1NNY,1NO6,1NZ7,1OEM,1OEO,1OES,1OET,1OEU,1OEV,1ONY,1ONZ,1PH0,1PXH,1PYN,1Q1M,1Q6J,1Q6M,1Q6N,1Q6P,1Q6S,1Q6T,1QXK,1SUG,1T48,1T49,1T4J,1WAX,1XBO,2AZR,2B07,2BGD,2BGE,
2CM2,2CM3,2CM7,2CM8,2CMA,2CMB,2CMC,2CNE,2CNF,2CNG,2CNH,2CNI,2F6T,2F6V,2F6W,2F6Y,2F6Z,2F70,2F71,2FJN,2H4G,2H4K,2HB1,2HNP,2HNQ,2QBP,2QBQ,2QBR,2QBS,2VEU,2VEV,2VEW,2VEX,2VEY,2ZMM,2ZN7,3A5J,3CWE,3D9C,3EAX,
3EB1,3EU0,3I7Z,3I80,3SME,4BJO,4I8N,4QBW,4Y14,5K9V,5K9W,5KA0,5KA1,5T19,6B90,6NTP,6W30,7KEY,7KLX,7LFO,7MN9,7MNA,8DU7,8G65,8G67,8G68,8G69,8G6A,8SKL

> <UniProt (SwissProt) Recommended Name of Target Chain>
Tyrosine-protein phosphatase non-receptor type 1

> <UniProt (SwissProt) Entry Name of Target Chain>
PTN1_HUMAN

> <UniProt (SwissProt) Primary ID of Target Chain>
P18031

> <UniProt (SwissProt) Secondary ID(s) of Target Chain>
Q5TGD8 Q9BQV9 Q9NQQ4

$$$$
Molecule
  SciTegic10242319433D

 55 59  0  0  0  0            999 V2000
    1.1813   -4.7465    0.0000 C   0  0
    1.7653   -3.4952    0.0001 C   0  0
   -0.5208   -4.5670    0.0001 S   0  0
   10.2281   -1.3570    0.0000 C   0  0
    0.6491   -2.3913    0.0002 C   0  0
   -0.6569   -2.9449    0.0003 C   0  0
    9.8592   -2.6420    0.0000 C   0  0
    9.1116   -0.2904   -0.0001 C   0  0
    7.4886   -2.1034   -0.0001 C   0  0
   11.6616   -1.1217    0.0000 O   0  0
    7.8435   -0.6951   -0.0001 C   0  0
    8.4411   -3.0301   -0.0001 C   0  0
    3.3083   -3.1627    0.0000 C   0  0
    1.9020   -6.1300   -0.0001 C   0  0
    6.0678   -2.4784   -0.0001 C   0  0
   13.6041    0.3098    0.0000 C   0  0
   14.1596    1.4148    0.0002 O   0  0
    4.2600   -4.1029    0.0000 C   0  0
    3.7630   -1.7550    0.0000 C   0  0
    5.0551   -1.4375   -0.0001 C   0  0
    5.6933   -3.7554   -0.0001 C   0  0
   12.1059    0.2310    0.0001 C   0  0
    9.3645    1.6176   -0.0001 Br  0  0
   11.1951   -3.9946    0.0000 Br  0  0
   14.3674   -0.8516   -0.0004 O   0  0
    1.0454   -7.4138    0.0000 C   0  0
    0.7946   -1.0644    0.0003 C   0  0
   -1.7709   -2.2274    0.0004 C   0  0
   -0.2868   -7.3965    0.0003 C   0  0
    1.7341   -8.7106   -0.0001 C   0  0
   -0.4165   -0.2135    0.0005 C   0  0
   -1.6350   -0.7664    0.0005 C   0  0
    1.0365   -9.8464    0.0001 C   0  0
   -1.0563   -8.6399    0.0004 C   0  0
   -0.4253   -9.8106    0.0003 C   0  0
    7.0492    0.0514   -0.0001 H   0  0
    8.1690   -4.0856   -0.0001 H   0  0
    2.5300   -6.1640   -0.8904 H   0  0
    2.5304   -6.1640    0.8899 H   0  0
    3.9685   -5.1532    0.0000 H   0  0
    3.0204   -0.9572    0.0000 H   0  0
    5.3554   -0.3897   -0.0001 H   0  0
    6.4455   -4.5442   -0.0001 H   0  0
   11.7238    0.7306    0.8903 H   0  0
   11.7237    0.7308   -0.8900 H   0  0
   14.1464   -1.4165    0.8567 H   0  0
    1.7879   -0.6154    0.0003 H   0  0
   -2.7510   -2.7044    0.0005 H   0  0
   -0.8111   -6.4409    0.0004 H   0  0
    2.8236   -8.7447   -0.0003 H   0  0
   -0.3150    0.8718    0.0006 H   0  0
   -2.5229   -0.1342    0.0007 H   0  0
    1.5570  -10.8042    0.0000 H   0  0
   -2.1458   -8.6073    0.0006 H   0  0
   -0.9955  -10.7396    0.0005 H   0  0
  2  1  2  0
  3  1  1  0
  4  7  2  0
  5  2  1  0
  6  3  1  0
  7 12  1  0
  8 11  2  0
  9 15  1  0
 10  4  1  0
 11  9  1  0
 12  9  2  0
 13  2  1  0
 14  1  1  0
 15 20  1  0
 16 22  1  0
 17 16  2  0
 18 13  2  0
 19 13  1  0
 20 19  2  0
 21 18  1  0
 22 10  1  0
 23  8  1  0
 24  7  1  0
 25 16  1  0
 26 14  1  0
 27  5  2  0
 28  6  2  0
 29 26  2  0
 30 26  1  0
 31 27  1  0
 32 28  1  0
 33 30  2  0
 34 29  1  0
 35 33  1  0
  5  6  1  0
 31 32  2  0
 21 15  2  0
 34 35  2  0
  8  4  1  0
 11 36  1  0
 12 37  1  0
 14 38  1  0
 14 39  1  0
 18 40  1  0
 19 41  1  0
 20 42  1  0
 21 43  1  0
 22 44  1  0
 22 45  1  0
 25 46  1  0
 27 47  1  0
 28 48  1  0
 29 49  1  0
 30 50  1  0
 31 51  1  0
 32 52  1  0
 33 53  1  0
 34 54  1  0
 35 55  1  0
M  END
> <Name>
Molecule

> <Clean Energy>
38.5524

> <From>
www.bindingDB.org

> <BindingDB Reactant_set_id>
50154646

> <Ligand InChI>
InChI=1S/C29H20Br2O3S/c30-23-15-21(16-24(31)29(23)34-17-27(32)33)19-10-12-20(13-11-19)28-22-8-4-5-9-25(22)35-26(28)14-18-6-2-1-3-7-18/h1-13,15-16H,14,17H2,(H,32,33)

> <Ligand InChI Key>
RMLAQPUOYYMEEQ-UHFFFAOYSA-N

> <BindingDB MonomerID>
50086965

> <BindingDB Ligand Name>
2-(4'-(2-benzylbenzo[b]thiophen-3-yl)-3,5-dibromobiphenyl-4-yloxy)acetic acid::CHEMBL24003::[4'-(2-Benzyl-benzo[b]thiophen-3-yl)-3,5-dibromo-biphenyl-4-yloxy]-acetic acid

> <Target Name>
Tyrosine-protein phosphatase non-receptor type 1

> <Target Source Organism According to Curator or DataSource>
Homo sapiens

> <IC50 (nM)>
100

> <Curation/DataSource>
ChEMBL

> <Article DOI>
10.1021/jm990560c

> <BindingDB Entry DOI>
10.7270/Q2W958FT

> <PMID>
10753467

> <Authors>
Malamas, MS; Sredy, J; Moxham, C; Katz, A; Xu, W; McDevitt, R; Adebayo, FO; Sawicki, DR; Seestaller, L; Sullivan, D; Taylor, JR

> <Institution>
Wyeth-Ayerst Research

> <Link to Ligand in BindingDB>
http://www.bindingdb.org/bind/chemsearch/marvin/MolStructure.jsp?monomerid=50086965

> <Link to Ligand-Target Pair in BindingDB>
http://www.bindingdb.org/jsp/dbsearch/PrimarySearch_ki.jsp?energyterm=kJ/mole&tag=pol&polymerid=2622&target=Tyrosine-protein+phosphatase+non-receptor+type+1&column=ki&startPg=0&Increment=50&submit=Sea
rch
http://www.bindingdb.org/jsp/dbsearch/PrimarySearch_ki.jsp?energyterm=kJ/mole&tag=r21&monomerid=50086965&enzyme=Tyrosine-protein+phosphatase+non-receptor+type+1&column=ki&startPg=0&Increment=50&submit
=Search

> <PubChem CID of Ligand>
10841392

> <PubChem SID of Ligand>
103986076

> <ChEMBL ID of Ligand>
CHEMBL24003

> <ZINC ID of Ligand>
ZINC28758451

> <Number of Protein Chains in Target (bigger than 1 implies a multichain complex)>
1

> <BindingDB Target Chain Sequence>
MEMEKEFEQIDKSGSWAAIYQDIRHEASDFPCRVAKLPKNKNRNRYRDVSPFDHSRIKLHQEDNDYINASLIKMEEAQRSYILTQGPLPNTCGHFWEMVWEQKSRGVVMLNRVMEKGSLKCAQYWPQKEEKEMIFEDTNLKLTLISEDIKSYYTVRQLELENLTTQETREILHFHYTTWPDFGVPESPASFLNFLFKVRE
SGSLSPEHGPVVVHCSAGIGRSGTFCLADTCLLLMDKRKDPSSVDIKKVLLEMRKFRMGLIQTADQLRFSYLAVIEGAKFIMGDSSVQDQWKELSHEDLEPPPEHIPPPPRPPKRILEPHNGKCREFFPNHQWVKEETQEDKDCPIKEEKGSPLNAAPYGIESMSQDTEVRSRVVGGSLRGAQAASPAKGEPSLPEKDED
HALSYWKPFLVNMCVATVLTAGAYLCYRFLFNSNT

> <PDB ID(s) of Target Chain>
1BZJ,1G7G,1GFY,1JF7,1KAK,1KAV,1LQF,1NL9,1NNY,1NO6,1NZ7,1OEM,1OEO,1OES,1OET,1OEU,1OEV,1ONY,1ONZ,1PH0,1PXH,1PYN,1Q1M,1Q6J,1Q6M,1Q6N,1Q6P,1Q6S,1Q6T,1QXK,1SUG,1T48,1T49,1T4J,1WAX,1XBO,2AZR,2B07,2BGD,2BGE,
2CM2,2CM3,2CM7,2CM8,2CMA,2CMB,2CMC,2CNE,2CNF,2CNG,2CNH,2CNI,2F6T,2F6V,2F6W,2F6Y,2F6Z,2F70,2F71,2FJN,2H4G,2H4K,2HB1,2HNP,2HNQ,2QBP,2QBQ,2QBR,2QBS,2VEU,2VEV,2VEW,2VEX,2VEY,2ZMM,2ZN7,3A5J,3CWE,3D9C,3EAX,
3EB1,3EU0,3I7Z,3I80,3SME,4BJO,4I8N,4QBW,4Y14,5K9V,5K9W,5KA0,5KA1,5T19,6B90,6NTP,6W30,7KEY,7KLX,7LFO,7MN9,7MNA,8DU7,8G65,8G67,8G68,8G69,8G6A,8SKL

> <UniProt (SwissProt) Recommended Name of Target Chain>
Tyrosine-protein phosphatase non-receptor type 1

> <UniProt (SwissProt) Entry Name of Target Chain>
PTN1_HUMAN

> <UniProt (SwissProt) Primary ID of Target Chain>
P18031

> <UniProt (SwissProt) Secondary ID(s) of Target Chain>
Q5TGD8 Q9BQV9 Q9NQQ4

$$$$
Molecule
  SciTegic10242319433D

 65 70  0  0  0  0            999 V2000
    0.9471   -5.3661    0.0004 C   0  0
    1.4953   -4.1027    0.0027 C   0  0
   -0.7563   -5.2352    0.0007 S   0  0
    0.3527   -3.0259    0.0038 C   0  0
   -0.9359   -3.6202    0.0021 C   0  0
    9.0550   -1.0451    0.0395 C   0  0
    7.7313   -1.2695    0.0506 C   0  0
    7.2140   -2.6545   -0.0324 C   0  0
    3.0282   -3.7193    0.0025 C   0  0
    1.6972   -6.7353   -0.0008 C   0  0
   10.0045   -2.2228   -0.0803 C   0  0
   12.4565   -4.5044    0.1289 C   0  0
    5.7769   -2.9795   -0.0122 C   0  0
   11.4348   -2.0087   -0.1014 O   0  0
    9.5513    0.3775    0.0624 C   0  0
    8.0631   -3.6647   -0.1510 C   0  0
   11.4394   -5.0798    0.5225 O   0  0
    9.4838   -3.4376   -0.1885 C   0  0
    3.4129   -2.4363    0.0294 C   0  0
    4.0981   -4.7338   -0.0324 C   0  0
    5.3820   -4.3841   -0.0419 C   0  0
    4.8377   -2.0402    0.0245 C   0  0
   12.4269   -3.0813   -0.4737 C   0  0
   13.6383   -5.2350    0.0494 O   0  0
    0.8666   -8.0465   -0.0003 C   0  0
    0.4612   -1.6998    0.0034 C   0  0
   -2.0702   -2.9324    0.0010 C   0  0
   10.8549    0.6613    0.0361 C   0  0
    8.5842    1.4854    0.0673 C   0  0
    1.5202   -9.2091   -0.0005 C   0  0
   -0.6046   -8.0702    0.0003 C   0  0
   -0.7713   -0.8821    0.0026 C   0  0
   -1.9739   -1.4694    0.0015 C   0  0
    9.0097    2.7501    0.0443 C   0  0
   11.3239    2.0480    0.0217 C   0  0
   -1.2733   -9.2215    0.0006 C   0  0
    0.7838  -10.4819   -0.0001 C   0  0
   -0.5473  -10.4858    0.0004 C   0  0
   10.4443    3.0458    0.0215 C   0  0
    7.0373   -0.4320    0.1207 H   0  0
    2.3251   -6.7549   -0.8916 H   0  0
    2.3269   -6.7555    0.8887 H   0  0
    7.6800   -4.6828   -0.2211 H   0  0
   10.1522   -4.2900   -0.3096 H   0  0
    2.6500   -1.6582    0.0558 H   0  0
    3.8320   -5.7906   -0.0508 H   0  0
    6.1493   -5.1576   -0.0721 H   0  0
    5.1152   -0.9865    0.0508 H   0  0
   13.4083   -2.6558   -0.2641 H   0  0
   12.3136   -3.2225   -1.5486 H   0  0
   13.9025   -5.3657   -0.9585 H   0  0
    1.4419   -1.2240    0.0036 H   0  0
   -3.0371   -3.4357   -0.0002 H   0  0
   11.5812   -0.1513    0.0251 H   0  0
    7.5154    1.2727    0.0898 H   0  0
    2.6102   -9.2158   -0.0009 H   0  0
   -1.1560   -7.1299    0.0005 H   0  0
   -0.6997    0.2055    0.0028 H   0  0
   -2.8789   -0.8619    0.0011 H   0  0
    8.2870    3.5661    0.0426 H   0  0
   12.3925    2.2625    0.0112 H   0  0
   -2.3633   -9.2188    0.0010 H   0  0
    1.3298  -11.4254   -0.0003 H   0  0
   -1.0921  -11.4299    0.0006 H   0  0
   10.7896    4.0796    0.0043 H   0  0
  2  1  2  0
  3  1  1  0
  4  2  1  0
  5  3  1  0
  6  7  2  0
  7  8  1  0
  8 13  1  0
  9  2  1  0
 10  1  1  0
 11 18  2  0
 12 23  1  0
 13 21  1  0
 14 11  1  0
 15  6  1  0
 16  8  2  0
 17 12  2  0
 18 16  1  0
 19  9  2  0
 20  9  1  0
 21 20  2  0
 22 19  1  0
 23 14  1  0
 24 12  1  0
 25 10  1  0
 26  4  2  0
 27  5  2  0
 28 15  2  0
 29 15  1  0
 30 25  2  0
 31 25  1  0
 32 26  1  0
 33 27  1  0
 34 29  2  0
 35 28  1  0
 36 31  2  0
 37 30  1  0
 38 36  1  0
 39 34  1  0
  4  5  1  0
 32 33  2  0
 13 22  2  0
 37 38  2  0
  6 11  1  0
 35 39  2  0
  7 40  1  0
 10 41  1  0
 10 42  1  0
 16 43  1  0
 18 44  1  0
 19 45  1  0
 20 46  1  0
 21 47  1  0
 22 48  1  0
 23 49  1  0
 23 50  1  0
 24 51  1  0
 26 52  1  0
 27 53  1  0
 28 54  1  0
 29 55  1  0
 30 56  1  0
 31 57  1  0
 32 58  1  0
 33 59  1  0
 34 60  1  0
 35 61  1  0
 36 62  1  0
 37 63  1  0
 38 64  1  0
 39 65  1  0
M  END
> <Name>
Molecule

> <Clean Energy>
47.5941

> <From>
www.bindingDB.org

> <BindingDB Reactant_set_id>
50154580

> <Ligand InChI>
InChI=1S/C35H26O3S/c36-34(37)23-38-31-20-19-28(22-30(31)26-11-5-2-6-12-26)25-15-17-27(18-16-25)35-29-13-7-8-14-32(29)39-33(35)21-24-9-3-1-4-10-24/h1-20,22H,21,23H2,(H,36,37)

> <Ligand InChI Key>
DUKPJMRESMYJTQ-UHFFFAOYSA-N

> <BindingDB MonomerID>
50086897

> <BindingDB Ligand Name>
CHEMBL24213::[4-(2-Benzyl-benzo[b]thiophen-3-yl)-[1,1'';3'',1'''']terphenyl-4''-yloxy]-acetic acid::[4-(2-Benzyl-benzo[b]thiophen-3-yl)-[1,1':3',1'']terphenyl-4'-yloxy]-acetic acid::[4-(2-Benzyl-benzo
[b]thiophen-3-yl)-[1,1';3',1'']terphenyl-4'-yloxy]-acetic acid

> <Target Name>
Tyrosine-protein phosphatase non-receptor type 1

> <Target Source Organism According to Curator or DataSource>
Homo sapiens

> <IC50 (nM)>
100

> <Curation/DataSource>
ChEMBL

> <Article DOI>
10.1021/jm990560c

> <BindingDB Entry DOI>
10.7270/Q2W958FT

> <PMID>
10753467

> <Authors>
Malamas, MS; Sredy, J; Moxham, C; Katz, A; Xu, W; McDevitt, R; Adebayo, FO; Sawicki, DR; Seestaller, L; Sullivan, D; Taylor, JR

> <Institution>
Wyeth-Ayerst Research

> <Link to Ligand in BindingDB>
http://www.bindingdb.org/bind/chemsearch/marvin/MolStructure.jsp?monomerid=50086897

> <Link to Ligand-Target Pair in BindingDB>
http://www.bindingdb.org/jsp/dbsearch/PrimarySearch_ki.jsp?energyterm=kJ/mole&tag=pol&polymerid=2622&target=Tyrosine-protein+phosphatase+non-receptor+type+1&column=ki&startPg=0&Increment=50&submit=Sea
rch
http://www.bindingdb.org/jsp/dbsearch/PrimarySearch_ki.jsp?energyterm=kJ/mole&tag=r21&monomerid=50086897&enzyme=Tyrosine-protein+phosphatase+non-receptor+type+1&column=ki&startPg=0&Increment=50&submit
=Search

> <PubChem CID of Ligand>
10554119

> <PubChem SID of Ligand>
103986008

> <ChEMBL ID of Ligand>
CHEMBL24213

> <ZINC ID of Ligand>
ZINC28757608

> <Number of Protein Chains in Target (bigger than 1 implies a multichain complex)>
1

> <BindingDB Target Chain Sequence>
MEMEKEFEQIDKSGSWAAIYQDIRHEASDFPCRVAKLPKNKNRNRYRDVSPFDHSRIKLHQEDNDYINASLIKMEEAQRSYILTQGPLPNTCGHFWEMVWEQKSRGVVMLNRVMEKGSLKCAQYWPQKEEKEMIFEDTNLKLTLISEDIKSYYTVRQLELENLTTQETREILHFHYTTWPDFGVPESPASFLNFLFKVRE
SGSLSPEHGPVVVHCSAGIGRSGTFCLADTCLLLMDKRKDPSSVDIKKVLLEMRKFRMGLIQTADQLRFSYLAVIEGAKFIMGDSSVQDQWKELSHEDLEPPPEHIPPPPRPPKRILEPHNGKCREFFPNHQWVKEETQEDKDCPIKEEKGSPLNAAPYGIESMSQDTEVRSRVVGGSLRGAQAASPAKGEPSLPEKDED
HALSYWKPFLVNMCVATVLTAGAYLCYRFLFNSNT

> <PDB ID(s) of Target Chain>
1BZJ,1G7G,1GFY,1JF7,1KAK,1KAV,1LQF,1NL9,1NNY,1NO6,1NZ7,1OEM,1OEO,1OES,1OET,1OEU,1OEV,1ONY,1ONZ,1PH0,1PXH,1PYN,1Q1M,1Q6J,1Q6M,1Q6N,1Q6P,1Q6S,1Q6T,1QXK,1SUG,1T48,1T49,1T4J,1WAX,1XBO,2AZR,2B07,2BGD,2BGE,
2CM2,2CM3,2CM7,2CM8,2CMA,2CMB,2CMC,2CNE,2CNF,2CNG,2CNH,2CNI,2F6T,2F6V,2F6W,2F6Y,2F6Z,2F70,2F71,2FJN,2H4G,2H4K,2HB1,2HNP,2HNQ,2QBP,2QBQ,2QBR,2QBS,2VEU,2VEV,2VEW,2VEX,2VEY,2ZMM,2ZN7,3A5J,3CWE,3D9C,3EAX,
3EB1,3EU0,3I7Z,3I80,3SME,4BJO,4I8N,4QBW,4Y14,5K9V,5K9W,5KA0,5KA1,5T19,6B90,6NTP,6W30,7KEY,7KLX,7LFO,7MN9,7MNA,8DU7,8G65,8G67,8G68,8G69,8G6A,8SKL

> <UniProt (SwissProt) Recommended Name of Target Chain>
Tyrosine-protein phosphatase non-receptor type 1

> <UniProt (SwissProt) Entry Name of Target Chain>
PTN1_HUMAN

> <UniProt (SwissProt) Primary ID of Target Chain>
P18031

> <UniProt (SwissProt) Secondary ID(s) of Target Chain>
Q5TGD8 Q9BQV9 Q9NQQ4

$$$$
Molecule
  SciTegic10242319433D

 77 82  0  0  0  0            999 V2000
    0.6263   -6.5518    0.0000 C   0  0
    1.1248   -5.2782   -0.0002 C   0  0
   -1.0859   -6.5007    0.0002 S   0  0
    9.3023   -0.5484    0.0002 C   0  0
    8.7834   -1.9798    0.0001 C   0  0
   -0.0317   -4.2551    0.0001 C   0  0
   -1.3184   -4.8877    0.0004 C   0  0
   10.2691    2.1174   -0.0010 C   0  0
    7.4483   -2.2565    0.0000 C   0  0
   11.1304    1.1042    0.0014 C   0  0
    8.8305    1.8492    0.0008 C   0  0
   10.6217   -0.2942   -0.0003 C   0  0
    8.3706    0.5916   -0.0008 C   0  0
    6.9533   -3.7043   -0.0002 C   0  0
    2.6346   -4.8751   -0.0003 C   0  0
    9.7616   -3.0705   -0.0112 C   0  0
    1.4108   -7.8488    0.0006 C   0  0
   11.6744   -5.2310    0.0000 C   0  0
    5.4312   -4.0887   -0.0005 C   0  0
   11.1530   -2.7504   -0.0005 O   0  0
    7.8796   -4.6702   -0.0107 C   0  0
   10.8867   -5.9305   -0.0035 O   0  0
    8.8489   -3.8698    0.0251 C   0  0
    3.6103   -5.7895    0.0000 C   0  0
    3.0481   -3.4368   -0.0005 C   0  0
    4.3450   -3.0699   -0.0001 C   0  0
    5.0636   -5.3800    0.0002 C   0  0
   12.1455   -3.8034    0.0010 C   0  0
   10.7815    3.4266    0.0008 O   0  0
    7.9382    2.9175   -0.0003 O   0  0
   12.5203    1.3164    0.0007 O   0  0
   12.5412   -6.2715    0.0006 O   0  0
    0.4688   -9.0697    0.0003 C   0  0
    0.0631   -2.9308   -0.0003 C   0  0
   -2.4679   -4.2233    0.0004 C   0  0
   12.1453    3.5613    0.0002 C   0  0
    8.6123    4.1706    0.0000 C   0  0
   13.2774    0.1877    0.0010 C   0  0
   -0.8567   -8.9403    0.0001 C   0  0
    1.0327  -10.4285    0.0006 C   0  0
   -1.1996   -2.1422   -0.0004 C   0  0
   -2.3934   -2.7546    0.0005 C   0  0
    0.2319  -11.4962   -0.0002 C   0  0
   -1.7421  -10.1011   -0.0006 C   0  0
   -1.2206  -11.3269   -0.0005 C   0  0
    6.7272   -1.4391    0.0000 H   0  0
   11.3290   -1.1236   -0.0019 H   0  0
    7.2958    0.4101   -0.0029 H   0  0
    2.0394   -7.8845   -0.8891 H   0  0
    2.0384   -7.8843    0.8911 H   0  0
    7.8167   -5.7580   -0.0399 H   0  0
    9.1633   -4.2384    1.0016 H   0  0
    3.3520   -6.8485    0.0002 H   0  0
    2.2790   -2.6644   -0.0011 H   0  0
    4.6028   -2.0109    0.0006 H   0  0
    5.8333   -6.1518    0.0010 H   0  0
   12.7581   -3.6671    0.8922 H   0  0
   12.7611   -3.6669   -0.8881 H   0  0
   13.1466   -6.2238   -0.8559 H   0  0
    1.0347   -2.4367   -0.0006 H   0  0
   -3.4255   -4.7440    0.0004 H   0  0
   12.4064    4.6195    0.0018 H   0  0
   12.5573    3.0873   -0.8908 H   0  0
   12.5584    3.0843    0.8890 H   0  0
    7.8798    4.9777   -0.0009 H   0  0
    9.2379    4.2474   -0.8893 H   0  0
    9.2362    4.2478    0.8905 H   0  0
   14.3334    0.4578    0.0004 H   0  0
   13.0531   -0.4012   -0.8884 H   0  0
   13.0539   -0.4002    0.8913 H   0  0
   -1.2921   -7.9410    0.0004 H   0  0
    2.1142  -10.5644    0.0014 H   0  0
   -1.1536   -1.0532   -0.0012 H   0  0
   -3.3088   -2.1629    0.0012 H   0  0
    0.6620  -12.4977   -0.0006 H   0  0
   -2.8237   -9.9655   -0.0013 H   0  0
   -1.8735  -12.1997   -0.0006 H   0  0
  2  1  2  0
  3  1  1  0
  4  5  1  0
  5  9  2  0
  6  2  1  0
  7  3  1  0
  8 11  1  0
  9 14  1  0
 10 12  1  0
 11 13  2  0
 12  4  2  0
 13  4  1  0
 14 19  1  0
 15  2  1  0
 16 23  2  0
 17  1  1  0
 18 28  1  0
 19 26  1  0
 20 16  1  0
 21 14  2  0
 22 18  2  0
 23 21  1  0
 24 15  2  0
 25 15  1  0
 26 25  2  0
 27 24  1  0
 28 20  1  0
 29  8  1  0
 30 11  1  0
 31 10  1  0
 32 18  1  0
 33 17  1  0
 34  6  2  0
 35  7  2  0
 36 29  1  0
 37 30  1  0
 38 31  1  0
 39 33  2  0
 40 33  1  0
 41 34  1  0
 42 35  1  0
 43 40  2  0
 44 39  1  0
 45 43  1  0
  6  7  1  0
 41 42  2  0
 27 19  2  0
 44 45  2  0
 16  5  1  0
 10  8  2  0
  9 46  1  0
 12 47  1  0
 13 48  1  0
 17 49  1  0
 17 50  1  0
 21 51  1  0
 23 52  1  0
 24 53  1  0
 25 54  1  0
 26 55  1  0
 27 56  1  0
 28 57  1  0
 28 58  1  0
 32 59  1  0
 34 60  1  0
 35 61  1  0
 36 62  1  0
 36 63  1  0
 36 64  1  0
 37 65  1  0
 37 66  1  0
 37 67  1  0
 38 68  1  0
 38 69  1  0
 38 70  1  0
 39 71  1  0
 40 72  1  0
 41 73  1  0
 42 74  1  0
 43 75  1  0
 44 76  1  0
 45 77  1  0
M  END
> <Name>
Molecule

> <Clean Energy>
423.088

> <From>
www.bindingDB.org

> <BindingDB Reactant_set_id>
50154584

> <Ligand InChI>
InChI=1S/C38H32O6S/c1-41-32-21-28(22-33(42-2)38(32)43-3)30-20-27(17-18-31(30)44-23-36(39)40)25-13-15-26(16-14-25)37-29-11-7-8-12-34(29)45-35(37)19-24-9-5-4-6-10-24/h4-18,20-22H,19,23H2,1-3H3,(H,39,40)

> <Ligand InChI Key>
CHIIJWJJKBQFAG-UHFFFAOYSA-N

> <BindingDB MonomerID>
50086901

> <BindingDB Ligand Name>
CHEMBL25395::[4-(2-Benzyl-benzo[b]thiophen-3-yl)-3'',4'',5''-trimethoxy-[1,1':3',1'']terphenyl-4'-yloxy]-acetic acid::[4-(2-Benzyl-benzo[b]thiophen-3-yl)-3'',4'',5''-trimethoxy-[1,1';3',1'']terphenyl-
4'-yloxy]-acetic acid

> <Target Name>
Tyrosine-protein phosphatase non-receptor type 1

> <Target Source Organism According to Curator or DataSource>
Homo sapiens

> <IC50 (nM)>
100

> <Curation/DataSource>
ChEMBL

> <Article DOI>
10.1021/jm990560c

> <BindingDB Entry DOI>
10.7270/Q2W958FT

> <PMID>
10753467

> <Authors>
Malamas, MS; Sredy, J; Moxham, C; Katz, A; Xu, W; McDevitt, R; Adebayo, FO; Sawicki, DR; Seestaller, L; Sullivan, D; Taylor, JR

> <Institution>
Wyeth-Ayerst Research

> <Link to Ligand in BindingDB>
http://www.bindingdb.org/bind/chemsearch/marvin/MolStructure.jsp?monomerid=50086901

> <Link to Ligand-Target Pair in BindingDB>
http://www.bindingdb.org/jsp/dbsearch/PrimarySearch_ki.jsp?energyterm=kJ/mole&tag=pol&polymerid=2622&target=Tyrosine-protein+phosphatase+non-receptor+type+1&column=ki&startPg=0&Increment=50&submit=Sea
rch
http://www.bindingdb.org/jsp/dbsearch/PrimarySearch_ki.jsp?energyterm=kJ/mole&tag=r21&monomerid=50086901&enzyme=Tyrosine-protein+phosphatase+non-receptor+type+1&column=ki&startPg=0&Increment=50&submit
=Search

> <PubChem CID of Ligand>
9917026

> <PubChem SID of Ligand>
103986012

> <ChEMBL ID of Ligand>
CHEMBL25395

> <ZINC ID of Ligand>
ZINC28758931

> <Number of Protein Chains in Target (bigger than 1 implies a multichain complex)>
1

> <BindingDB Target Chain Sequence>
MEMEKEFEQIDKSGSWAAIYQDIRHEASDFPCRVAKLPKNKNRNRYRDVSPFDHSRIKLHQEDNDYINASLIKMEEAQRSYILTQGPLPNTCGHFWEMVWEQKSRGVVMLNRVMEKGSLKCAQYWPQKEEKEMIFEDTNLKLTLISEDIKSYYTVRQLELENLTTQETREILHFHYTTWPDFGVPESPASFLNFLFKVRE
SGSLSPEHGPVVVHCSAGIGRSGTFCLADTCLLLMDKRKDPSSVDIKKVLLEMRKFRMGLIQTADQLRFSYLAVIEGAKFIMGDSSVQDQWKELSHEDLEPPPEHIPPPPRPPKRILEPHNGKCREFFPNHQWVKEETQEDKDCPIKEEKGSPLNAAPYGIESMSQDTEVRSRVVGGSLRGAQAASPAKGEPSLPEKDED
HALSYWKPFLVNMCVATVLTAGAYLCYRFLFNSNT

> <PDB ID(s) of Target Chain>
1BZJ,1G7G,1GFY,1JF7,1KAK,1KAV,1LQF,1NL9,1NNY,1NO6,1NZ7,1OEM,1OEO,1OES,1OET,1OEU,1OEV,1ONY,1ONZ,1PH0,1PXH,1PYN,1Q1M,1Q6J,1Q6M,1Q6N,1Q6P,1Q6S,1Q6T,1QXK,1SUG,1T48,1T49,1T4J,1WAX,1XBO,2AZR,2B07,2BGD,2BGE,
2CM2,2CM3,2CM7,2CM8,2CMA,2CMB,2CMC,2CNE,2CNF,2CNG,2CNH,2CNI,2F6T,2F6V,2F6W,2F6Y,2F6Z,2F70,2F71,2FJN,2H4G,2H4K,2HB1,2HNP,2HNQ,2QBP,2QBQ,2QBR,2QBS,2VEU,2VEV,2VEW,2VEX,2VEY,2ZMM,2ZN7,3A5J,3CWE,3D9C,3EAX,
3EB1,3EU0,3I7Z,3I80,3SME,4BJO,4I8N,4QBW,4Y14,5K9V,5K9W,5KA0,5KA1,5T19,6B90,6NTP,6W30,7KEY,7KLX,7LFO,7MN9,7MNA,8DU7,8G65,8G67,8G68,8G69,8G6A,8SKL

> <UniProt (SwissProt) Recommended Name of Target Chain>
Tyrosine-protein phosphatase non-receptor type 1

> <UniProt (SwissProt) Entry Name of Target Chain>
PTN1_HUMAN

> <UniProt (SwissProt) Primary ID of Target Chain>
P18031

> <UniProt (SwissProt) Secondary ID(s) of Target Chain>
Q5TGD8 Q9BQV9 Q9NQQ4

$$$$
